*SPEF "IEEE 1481-1999"
*DESIGN "fxp_div"
*DATE "Thu Dec  5 17:54:40 2024"
*VENDOR "SYNOPSYS INC"
*PROGRAM "Synopsys Design Compiler cmos"
*VERSION "V-2023.12-SP5"
*DESIGN_FLOW "SYNTHESIS"
*DIVIDER /
*DELIMITER :
*BUS_DELIMITER []
*T_UNIT 1.0 NS
*C_UNIT 0.0010 PF
*R_UNIT 1000.0 KOHM
*L_UNIT 1.0 HENRY

*PORTS

clk I *L 0.000e+00 *S 1.020e-02 2.111e-02 *D NBUFFX4_RVT 
rst I *L 0.000e+00 *S 3.060e-03 2.681e-02 *D NBUFFX4_RVT 
start I *L 0.000e+00 *S 2.834e-03 3.197e-02 *D NBUFFX4_RVT 
busy O *L 3.000e-01 *S 1.508e-02 3.171e-02 
done O *L 3.000e-01 *S 2.198e-03 2.568e-03 
valid O *L 3.000e-01 *S 1.536e-02 3.238e-02 
dbz O *L 3.000e-01 *S 1.619e-02 3.432e-02 
ovf O *L 3.000e-01 *S 1.624e-02 3.444e-02 
a\[15\] I *L 0.000e+00 *S 7.664e-03 1.366e-02 *D NBUFFX4_RVT 
a\[14\] I *L 0.000e+00 *S 5.583e-03 1.316e-02 *D NBUFFX4_RVT 
a\[13\] I *L 0.000e+00 *S 6.781e-03 1.345e-02 *D NBUFFX4_RVT 
a\[12\] I *L 0.000e+00 *S 5.827e-03 1.322e-02 *D NBUFFX4_RVT 
a\[11\] I *L 0.000e+00 *S 6.781e-03 1.345e-02 *D NBUFFX4_RVT 
a\[10\] I *L 0.000e+00 *S 5.827e-03 1.322e-02 *D NBUFFX4_RVT 
a\[9\] I *L 0.000e+00 *S 6.781e-03 1.345e-02 *D NBUFFX4_RVT 
a\[8\] I *L 0.000e+00 *S 5.827e-03 1.322e-02 *D NBUFFX4_RVT 
a\[7\] I *L 0.000e+00 *S 6.781e-03 1.345e-02 *D NBUFFX4_RVT 
a\[6\] I *L 0.000e+00 *S 6.081e-03 1.328e-02 *D NBUFFX4_RVT 
a\[5\] I *L 0.000e+00 *S 5.159e-03 1.306e-02 *D NBUFFX4_RVT 
a\[4\] I *L 0.000e+00 *S 8.090e-03 1.376e-02 *D NBUFFX4_RVT 
a\[3\] I *L 0.000e+00 *S 6.081e-03 1.328e-02 *D NBUFFX4_RVT 
a\[2\] I *L 0.000e+00 *S 5.159e-03 1.306e-02 *D NBUFFX4_RVT 
a\[1\] I *L 0.000e+00 *S 7.585e-03 1.364e-02 *D NBUFFX4_RVT 
a\[0\] I *L 0.000e+00 *S 7.037e-03 1.351e-02 *D NBUFFX4_RVT 
b\[15\] I *L 0.000e+00 *S 8.924e-03 1.396e-02 *D NBUFFX4_RVT 
b\[14\] I *L 0.000e+00 *S 5.827e-03 1.322e-02 *D NBUFFX4_RVT 
b\[13\] I *L 0.000e+00 *S 5.532e-03 1.315e-02 *D NBUFFX4_RVT 
b\[12\] I *L 0.000e+00 *S 6.250e-03 1.332e-02 *D NBUFFX4_RVT 
b\[11\] I *L 0.000e+00 *S 6.781e-03 1.345e-02 *D NBUFFX4_RVT 
b\[10\] I *L 0.000e+00 *S 5.827e-03 1.322e-02 *D NBUFFX4_RVT 
b\[9\] I *L 0.000e+00 *S 6.781e-03 1.345e-02 *D NBUFFX4_RVT 
b\[8\] I *L 0.000e+00 *S 5.827e-03 1.322e-02 *D NBUFFX4_RVT 
b\[7\] I *L 0.000e+00 *S 6.781e-03 1.345e-02 *D NBUFFX4_RVT 
b\[6\] I *L 0.000e+00 *S 5.827e-03 1.322e-02 *D NBUFFX4_RVT 
b\[5\] I *L 0.000e+00 *S 6.781e-03 1.345e-02 *D NBUFFX4_RVT 
b\[4\] I *L 0.000e+00 *S 4.832e-03 1.422e-02 *D NBUFFX4_RVT 
b\[3\] I *L 0.000e+00 *S 5.135e-03 1.305e-02 *D NBUFFX4_RVT 
b\[2\] I *L 0.000e+00 *S 8.035e-03 1.375e-02 *D NBUFFX4_RVT 
b\[1\] I *L 0.000e+00 *S 9.208e-03 1.404e-02 *D NBUFFX4_RVT 
b\[0\] I *L 0.000e+00 *S 8.652e-03 1.390e-02 *D NBUFFX4_RVT 
val\[15\] O *L 3.000e-01 *S 9.376e-03 1.852e-02 
val\[14\] O *L 3.000e-01 *S 9.716e-03 1.926e-02 
val\[13\] O *L 3.000e-01 *S 9.536e-03 1.887e-02 
val\[12\] O *L 3.000e-01 *S 9.536e-03 1.887e-02 
val\[11\] O *L 3.000e-01 *S 9.536e-03 1.887e-02 
val\[10\] O *L 3.000e-01 *S 9.536e-03 1.887e-02 
val\[9\] O *L 3.000e-01 *S 9.536e-03 1.887e-02 
val\[8\] O *L 3.000e-01 *S 9.716e-03 1.926e-02 
val\[7\] O *L 3.000e-01 *S 9.536e-03 1.887e-02 
val\[6\] O *L 3.000e-01 *S 9.716e-03 1.926e-02 
val\[5\] O *L 3.000e-01 *S 9.716e-03 1.926e-02 
val\[4\] O *L 3.000e-01 *S 9.716e-03 1.926e-02 
val\[3\] O *L 3.000e-01 *S 9.716e-03 1.926e-02 
val\[2\] O *L 3.000e-01 *S 9.536e-03 1.887e-02 
val\[1\] O *L 3.000e-01 *S 9.316e-03 1.840e-02 
val\[0\] O *L 3.000e-01 *S 9.745e-03 1.932e-02 

*R_NET clk 3.305e+01
*DRIVER clk
*CELL NBUFFX4_RVT
*C2_R1_C1 1.652e+01 4.175e-01 1.652e+01 
*LOADS
*RC bu_r_reg_8_:CLK 1.361e-01
*RC quo_r_reg_8_:CLK 1.361e-01
*RC count_r_reg_0_:CLK 1.361e-01
*RC acc_r_reg_3_:CLK 1.361e-01
*RC val_r_reg_15_:CLK 1.361e-01
*RC busy_r_reg:CLK 1.361e-01
*RC val_r_reg_12_:CLK 1.361e-01
*RC val_r_reg_5_:CLK 1.361e-01
*RC bu_r_reg_13_:CLK 1.361e-01
*RC U459:A 1.546e-01
*END

*R_NET rst 4.073e+01
*DRIVER rst
*CELL NBUFFX4_RVT
*C2_R1_C1 2.037e+01 4.871e-01 2.037e+01 
*LOADS
*RC U441:A 1.640e-01
*RC U569:A 1.640e-01
*RC U570:A 1.640e-01
*RC U576:A 1.640e-01
*RC U575:A 1.640e-01
*RC U574:A 1.640e-01
*RC U572:A 1.640e-01
*RC U571:A 1.640e-01
*RC U436:A 1.640e-01
*RC U440:A 1.640e-01
*RC U573:A 1.640e-01
*END

*R_NET start 3.699e+00
*DRIVER start
*CELL NBUFFX4_RVT
*C2_R1_C1 1.849e+00 2.192e-02 1.849e+00 
*LOADS
*RC U481:A 8.109e-02
*END

*R_NET busy 4.973e+00
*DRIVER busy_r_reg:Q
*CELL DFFARX1_RVT
*C2_R1_C1 2.486e+00 8.117e-02 2.486e+00 
*LOADS
*RC U482:A2 6.567e-02
*RC U520:A1 6.062e-02
*RC busy 8.262e-03
*END

*R_NET done 3.043e-01
*DRIVER U737:Y
*CELL OA221X1_RVT
*C2_R1_C1 1.522e-01 2.192e-02 1.522e-01 
*LOADS
*RC done 6.673e-03
*END

*R_NET valid 5.141e+00
*DRIVER valid_r_reg:Q
*CELL DFFARX1_RVT
*C2_R1_C1 2.571e+00 8.117e-02 2.571e+00 
*LOADS
*RC U611:A3 6.388e-02
*RC U611:A1 6.696e-02
*RC valid 8.262e-03
*END

*R_NET dbz 5.403e+00
*DRIVER dbz_r_reg:Q
*CELL DFFARX1_RVT
*C2_R1_C1 2.701e+00 8.117e-02 2.701e+00 
*LOADS
*RC U482:A3 7.009e-02
*RC U708:A2 6.783e-02
*RC dbz 8.262e-03
*END

*R_NET ovf 5.452e+00
*DRIVER ovf_r_reg:Q
*CELL DFFARX1_RVT
*C2_R1_C1 2.726e+00 8.117e-02 2.726e+00 
*LOADS
*RC U482:A4 7.864e-02
*RC U517:A1 6.062e-02
*RC ovf 8.262e-03
*END

*R_NET a\[15\] 1.100e+01
*DRIVER a\[15\]
*CELL NBUFFX4_RVT
*C2_R1_C1 5.499e+00 1.158e-01 5.499e+00 
*LOADS
*RC U503:A 1.071e-01
*RC U649:A1 7.148e-02
*RC U671:A1 8.116e-02
*RC U779:A2 5.856e-02
*END

*R_NET a\[14\] 7.598e+00
*DRIVER a\[14\]
*CELL NBUFFX4_RVT
*C2_R1_C1 3.799e+00 8.117e-02 3.799e+00 
*LOADS
*RC U504:A2 6.572e-02
*RC U761:A1 6.561e-02
*RC U762:A6 7.425e-02
*END

*R_NET a\[13\] 9.490e+00
*DRIVER a\[13\]
*CELL NBUFFX4_RVT
*C2_R1_C1 4.745e+00 8.117e-02 4.745e+00 
*LOADS
*RC U471:A1 7.693e-02
*RC U670:A0 1.182e-01
*RC U672:A1 6.164e-02
*END

*R_NET a\[12\] 8.012e+00
*DRIVER a\[12\]
*CELL NBUFFX4_RVT
*C2_R1_C1 4.006e+00 8.117e-02 4.006e+00 
*LOADS
*RC U502:A1 7.693e-02
*RC U763:A1 6.561e-02
*RC U765:A6 7.425e-02
*END

*R_NET a\[11\] 9.490e+00
*DRIVER a\[11\]
*CELL NBUFFX4_RVT
*C2_R1_C1 4.745e+00 8.117e-02 4.745e+00 
*LOADS
*RC U501:A1 7.693e-02
*RC U677:A0 1.182e-01
*RC U678:A1 6.164e-02
*END

*R_NET a\[10\] 8.012e+00
*DRIVER a\[10\]
*CELL NBUFFX4_RVT
*C2_R1_C1 4.006e+00 8.117e-02 4.006e+00 
*LOADS
*RC U500:A1 7.693e-02
*RC U766:A1 6.561e-02
*RC U768:A6 7.425e-02
*END

*R_NET a\[9\] 9.490e+00
*DRIVER a\[9\]
*CELL NBUFFX4_RVT
*C2_R1_C1 4.745e+00 8.117e-02 4.745e+00 
*LOADS
*RC U499:A1 7.693e-02
*RC U681:A0 1.182e-01
*RC U682:A1 6.164e-02
*END

*R_NET a\[8\] 8.012e+00
*DRIVER a\[8\]
*CELL NBUFFX4_RVT
*C2_R1_C1 4.006e+00 8.117e-02 4.006e+00 
*LOADS
*RC U498:A1 7.693e-02
*RC U769:A1 6.561e-02
*RC U771:A6 7.425e-02
*END

*R_NET a\[7\] 9.490e+00
*DRIVER a\[7\]
*CELL NBUFFX4_RVT
*C2_R1_C1 4.745e+00 8.117e-02 4.745e+00 
*LOADS
*RC U497:A1 7.693e-02
*RC U689:A0 1.182e-01
*RC U690:A1 6.164e-02
*END

*R_NET a\[6\] 8.419e+00
*DRIVER a\[6\]
*CELL NBUFFX4_RVT
*C2_R1_C1 4.210e+00 8.117e-02 4.210e+00 
*LOADS
*RC U470:A2 8.795e-02
*RC U772:A1 6.561e-02
*RC U774:A6 7.425e-02
*END

*R_NET a\[5\] 6.926e+00
*DRIVER a\[5\]
*CELL NBUFFX4_RVT
*C2_R1_C1 3.463e+00 8.117e-02 3.463e+00 
*LOADS
*RC U454:A3 5.976e-02
*RC U496:A1 6.599e-02
*RC U692:A1 6.164e-02
*END

*R_NET a\[4\] 1.157e+01
*DRIVER a\[4\]
*CELL NBUFFX4_RVT
*C2_R1_C1 5.784e+00 1.158e-01 5.784e+00 
*LOADS
*RC U454:A1 6.702e-02
*RC U496:A2 7.537e-02
*RC U696:A0 1.264e-01
*RC U697:A1 6.595e-02
*END

*R_NET a\[3\] 8.419e+00
*DRIVER a\[3\]
*CELL NBUFFX4_RVT
*C2_R1_C1 4.210e+00 8.117e-02 4.210e+00 
*LOADS
*RC U495:A2 8.795e-02
*RC U775:A1 6.561e-02
*RC U777:A6 7.425e-02
*END

*R_NET a\[2\] 6.926e+00
*DRIVER a\[2\]
*CELL NBUFFX4_RVT
*C2_R1_C1 3.463e+00 8.117e-02 3.463e+00 
*LOADS
*RC U461:A3 5.976e-02
*RC U494:A1 6.599e-02
*RC U700:A1 6.164e-02
*END

*R_NET a\[1\] 1.079e+01
*DRIVER a\[1\]
*CELL NBUFFX4_RVT
*C2_R1_C1 5.393e+00 1.158e-01 5.393e+00 
*LOADS
*RC U461:A2 6.752e-02
*RC U494:A2 7.537e-02
*RC U778:A 1.071e-01
*RC U780:A3 6.217e-02
*END

*R_NET b\[15\] 1.302e+01
*DRIVER b\[15\]
*CELL NBUFFX4_RVT
*C2_R1_C1 6.509e+00 1.542e-01 6.509e+00 
*LOADS
*RC U514:A1 7.524e-02
*RC U644:A2 1.014e-01
*RC U647:A1 8.649e-02
*RC U651:A3 6.354e-02
*RC U744:A1 7.480e-02
*END

*R_NET b\[14\] 8.012e+00
*DRIVER b\[14\]
*CELL NBUFFX4_RVT
*C2_R1_C1 4.006e+00 8.117e-02 4.006e+00 
*LOADS
*RC U493:A1 7.693e-02
*RC U741:A1 6.561e-02
*RC U742:A6 7.425e-02
*END

*R_NET b\[13\] 7.546e+00
*DRIVER b\[13\]
*CELL NBUFFX4_RVT
*C2_R1_C1 3.773e+00 8.117e-02 3.773e+00 
*LOADS
*RC U477:A1 7.693e-02
*RC U657:A1 6.164e-02
*RC U658:A1 6.561e-02
*END

*R_NET b\[12\] 8.691e+00
*DRIVER b\[12\]
*CELL NBUFFX4_RVT
*C2_R1_C1 4.345e+00 8.117e-02 4.345e+00 
*LOADS
*RC U492:A1 7.693e-02
*RC U743:A 1.001e-01
*RC U745:A3 5.811e-02
*END

*R_NET b\[11\] 9.490e+00
*DRIVER b\[11\]
*CELL NBUFFX4_RVT
*C2_R1_C1 4.745e+00 8.117e-02 4.745e+00 
*LOADS
*RC U491:A1 7.693e-02
*RC U664:A0 1.182e-01
*RC U665:A1 6.164e-02
*END

*R_NET b\[10\] 8.012e+00
*DRIVER b\[10\]
*CELL NBUFFX4_RVT
*C2_R1_C1 4.006e+00 8.117e-02 4.006e+00 
*LOADS
*RC U490:A1 7.693e-02
*RC U746:A1 6.561e-02
*RC U748:A6 7.425e-02
*END

*R_NET b\[9\] 9.490e+00
*DRIVER b\[9\]
*CELL NBUFFX4_RVT
*C2_R1_C1 4.745e+00 8.117e-02 4.745e+00 
*LOADS
*RC U489:A1 7.693e-02
*RC U667:A0 1.182e-01
*RC U668:A1 6.164e-02
*END

*R_NET b\[8\] 8.012e+00
*DRIVER b\[8\]
*CELL NBUFFX4_RVT
*C2_R1_C1 4.006e+00 8.117e-02 4.006e+00 
*LOADS
*RC U488:A1 7.693e-02
*RC U749:A1 6.561e-02
*RC U751:A6 7.425e-02
*END

*R_NET b\[7\] 9.490e+00
*DRIVER b\[7\]
*CELL NBUFFX4_RVT
*C2_R1_C1 4.745e+00 8.117e-02 4.745e+00 
*LOADS
*RC U472:A1 7.693e-02
*RC U674:A0 1.182e-01
*RC U675:A1 6.164e-02
*END

*R_NET b\[6\] 8.012e+00
*DRIVER b\[6\]
*CELL NBUFFX4_RVT
*C2_R1_C1 4.006e+00 8.117e-02 4.006e+00 
*LOADS
*RC U487:A1 7.693e-02
*RC U752:A1 6.561e-02
*RC U754:A6 7.425e-02
*END

*R_NET b\[5\] 9.490e+00
*DRIVER b\[5\]
*CELL NBUFFX4_RVT
*C2_R1_C1 4.745e+00 8.117e-02 4.745e+00 
*LOADS
*RC U486:A1 7.693e-02
*RC U661:A0 1.182e-01
*RC U662:A1 6.164e-02
*END

*R_NET b\[4\] 6.443e+00
*DRIVER b\[4\]
*CELL NBUFFX4_RVT
*C2_R1_C1 3.222e+00 5.002e-02 3.222e+00 
*LOADS
*RC U484:A 9.252e-02
*RC U757:A6 6.862e-02
*END

*R_NET b\[3\] 6.817e+00
*DRIVER b\[3\]
*CELL NBUFFX4_RVT
*C2_R1_C1 3.408e+00 5.002e-02 3.408e+00 
*LOADS
*RC U483:A1 6.123e-02
*RC U652:A0 1.092e-01
*END

*R_NET b\[2\] 1.147e+01
*DRIVER b\[2\]
*CELL NBUFFX4_RVT
*C2_R1_C1 5.735e+00 1.158e-01 5.735e+00 
*LOADS
*RC U483:A2 7.026e-02
*RC U651:A1 6.933e-02
*RC U654:A0 1.264e-01
*RC U655:A1 6.595e-02
*END

*R_NET b\[1\] 1.344e+01
*DRIVER b\[1\]
*CELL NBUFFX4_RVT
*C2_R1_C1 6.718e+00 1.542e-01 6.718e+00 
*LOADS
*RC U483:A4 8.966e-02
*RC U650:A2 1.003e-01
*RC U758:A2 6.242e-02
*RC U759:A2 7.733e-02
*RC U760:A6 8.466e-02
*END

*R_NET val\[15\] 2.774e+00
*DRIVER val_r_reg_15_:Q
*CELL DFFARX1_RVT
*C2_R1_C1 1.387e+00 5.002e-02 1.387e+00 
*LOADS
*RC U707:A1 6.175e-02
*RC val\[15\] 7.627e-03
*END

*R_NET val\[14\] 2.889e+00
*DRIVER val_r_reg_14_:Q
*CELL DFFARX1_RVT
*C2_R1_C1 1.444e+00 5.002e-02 1.444e+00 
*LOADS
*RC U866:A3 6.462e-02
*RC val\[14\] 7.627e-03
*END

*R_NET val\[13\] 2.820e+00
*DRIVER val_r_reg_13_:Q
*CELL DFFARX1_RVT
*C2_R1_C1 1.410e+00 5.002e-02 1.410e+00 
*LOADS
*RC U567:A3 6.290e-02
*RC val\[13\] 7.627e-03
*END

*R_NET val\[12\] 2.820e+00
*DRIVER val_r_reg_12_:Q
*CELL DFFARX1_RVT
*C2_R1_C1 1.410e+00 5.002e-02 1.410e+00 
*LOADS
*RC U541:A3 6.290e-02
*RC val\[12\] 7.627e-03
*END

*R_NET val\[11\] 2.820e+00
*DRIVER val_r_reg_11_:Q
*CELL DFFARX1_RVT
*C2_R1_C1 1.410e+00 5.002e-02 1.410e+00 
*LOADS
*RC U546:A3 6.290e-02
*RC val\[11\] 7.627e-03
*END

*R_NET val\[10\] 2.820e+00
*DRIVER val_r_reg_10_:Q
*CELL DFFARX1_RVT
*C2_R1_C1 1.410e+00 5.002e-02 1.410e+00 
*LOADS
*RC U561:A3 6.290e-02
*RC val\[10\] 7.627e-03
*END

*R_NET val\[9\] 2.820e+00
*DRIVER val_r_reg_9_:Q
*CELL DFFARX1_RVT
*C2_R1_C1 1.410e+00 5.002e-02 1.410e+00 
*LOADS
*RC U551:A3 6.290e-02
*RC val\[9\] 7.627e-03
*END

*R_NET val\[8\] 2.889e+00
*DRIVER val_r_reg_8_:Q
*CELL DFFARX1_RVT
*C2_R1_C1 1.444e+00 5.002e-02 1.444e+00 
*LOADS
*RC U863:A3 6.462e-02
*RC val\[8\] 7.627e-03
*END

*R_NET val\[7\] 2.820e+00
*DRIVER val_r_reg_7_:Q
*CELL DFFARX1_RVT
*C2_R1_C1 1.410e+00 5.002e-02 1.410e+00 
*LOADS
*RC U556:A3 6.290e-02
*RC val\[7\] 7.627e-03
*END

*R_NET val\[6\] 2.889e+00
*DRIVER val_r_reg_6_:Q
*CELL DFFARX1_RVT
*C2_R1_C1 1.444e+00 5.002e-02 1.444e+00 
*LOADS
*RC U859:A3 6.462e-02
*RC val\[6\] 7.627e-03
*END

*R_NET val\[5\] 2.889e+00
*DRIVER val_r_reg_5_:Q
*CELL DFFARX1_RVT
*C2_R1_C1 1.444e+00 5.002e-02 1.444e+00 
*LOADS
*RC U855:A3 6.462e-02
*RC val\[5\] 7.627e-03
*END

*R_NET val\[4\] 2.889e+00
*DRIVER val_r_reg_4_:Q
*CELL DFFARX1_RVT
*C2_R1_C1 1.444e+00 5.002e-02 1.444e+00 
*LOADS
*RC U851:A3 6.462e-02
*RC val\[4\] 7.627e-03
*END

*R_NET val\[3\] 2.889e+00
*DRIVER val_r_reg_3_:Q
*CELL DFFARX1_RVT
*C2_R1_C1 1.444e+00 5.002e-02 1.444e+00 
*LOADS
*RC U846:A3 6.462e-02
*RC val\[3\] 7.627e-03
*END

*R_NET val\[2\] 2.820e+00
*DRIVER val_r_reg_2_:Q
*CELL DFFARX1_RVT
*C2_R1_C1 1.410e+00 5.002e-02 1.410e+00 
*LOADS
*RC U684:A3 6.290e-02
*RC val\[2\] 7.627e-03
*END

*R_NET val\[1\] 2.734e+00
*DRIVER val_r_reg_1_:Q
*CELL DFFARX1_RVT
*C2_R1_C1 1.367e+00 5.002e-02 1.367e+00 
*LOADS
*RC U845:A2 6.074e-02
*RC val\[1\] 7.627e-03
*END

*R_NET val\[0\] 2.884e+00
*DRIVER val_r_reg_0_:Q
*CELL DFFARX1_RVT
*C2_R1_C1 1.442e+00 5.002e-02 1.442e+00 
*LOADS
*RC U699:A4 6.450e-02
*RC val\[0\] 7.627e-03
*END

*R_NET count_r\[5\] 4.471e+00
*DRIVER count_r_reg_5_:Q
*CELL DFFARX1_RVT
*C2_R1_C1 2.235e+00 5.002e-02 2.235e+00 
*LOADS
*RC U721:A3 5.912e-02
*RC U721:A1 5.269e-02
*END

*R_NET count_r\[4\] 7.425e+00
*DRIVER count_r_reg_4_:Q
*CELL DFFARX1_RVT
*C2_R1_C1 3.712e+00 8.117e-02 3.712e+00 
*LOADS
*RC U719:A1 6.164e-02
*RC U721:A2 5.755e-02
*RC U739:A1 8.169e-02
*END

*R_NET count_r\[3\] 9.040e+00
*DRIVER count_r_reg_3_:Q
*CELL DFFARX1_RVT
*C2_R1_C1 4.520e+00 1.158e-01 4.520e+00 
*LOADS
*RC U510:A1 6.292e-02
*RC U718:A1 6.929e-02
*RC U727:A3 6.843e-02
*RC U727:A1 6.100e-02
*END

*R_NET count_r\[2\] 9.304e+00
*DRIVER count_r_reg_2_:Q
*CELL DFFARX1_RVT
*C2_R1_C1 4.652e+00 1.158e-01 4.652e+00 
*LOADS
*RC U511:A1 6.929e-02
*RC U715:A2 7.055e-02
*RC U725:A3 6.843e-02
*RC U725:A1 6.100e-02
*END

*R_NET count_r\[1\] 1.189e+01
*DRIVER count_r_reg_1_:Q
*CELL DFFARX1_RVT
*C2_R1_C1 5.943e+00 1.542e-01 5.943e+00 
*LOADS
*RC U510:A2 5.625e-02
*RC U706:A3 7.293e-02
*RC U706:A1 6.501e-02
*RC U715:A1 8.589e-02
*RC U723:A1 8.649e-02
*END

*R_NET count_r\[0\] 9.071e+00
*DRIVER count_r_reg_0_:Q
*CELL DFFARX1_RVT
*C2_R1_C1 4.535e+00 1.158e-01 4.535e+00 
*LOADS
*RC U706:A2 6.157e-02
*RC U715:A3 6.602e-02
*RC U722:A1 6.595e-02
*RC U723:A2 6.898e-02
*END

*R_NET acc_r\[15\] 2.277e+00
*DRIVER acc_r_reg_15_:Q
*CELL DFFARX1_RVT
*C2_R1_C1 1.139e+00 2.192e-02 1.139e+00 
*LOADS
*RC U713:A1 4.993e-02
*END

*R_NET acc_r\[14\] 7.616e+00
*DRIVER acc_r_reg_14_:Q
*CELL DFFARX1_RVT
*C2_R1_C1 3.808e+00 8.117e-02 3.808e+00 
*LOADS
*RC U581:A1 6.561e-02
*RC U591:A3 7.241e-02
*RC U713:A3 6.806e-02
*END

*R_NET acc_r\[13\] 4.565e+00
*DRIVER acc_r_reg_13_:Q
*CELL DFFARX1_RVT
*C2_R1_C1 2.282e+00 5.002e-02 2.282e+00 
*LOADS
*RC U591:A1 5.353e-02
*RC U593:A1 6.063e-02
*END

*R_NET acc_r\[7\] 2.277e+00
*DRIVER acc_r_reg_7_:Q
*CELL DFFARX1_RVT
*C2_R1_C1 1.139e+00 2.192e-02 1.139e+00 
*LOADS
*RC U731:A1 4.993e-02
*END

*R_NET acc_r\[6\] 2.514e+00
*DRIVER acc_r_reg_6_:Q
*CELL DFFARX1_RVT
*C2_R1_C1 1.257e+00 2.192e-02 1.257e+00 
*LOADS
*RC U731:A3 5.512e-02
*END

*R_NET acc_r\[3\] 2.514e+00
*DRIVER acc_r_reg_3_:Q
*CELL DFFARX1_RVT
*C2_R1_C1 1.257e+00 2.192e-02 1.257e+00 
*LOADS
*RC U640:A3 5.512e-02
*END

*R_NET acc_r\[2\] 7.136e+00
*DRIVER acc_r_reg_2_:Q
*CELL DFFARX1_RVT
*C2_R1_C1 3.568e+00 8.117e-02 3.568e+00 
*LOADS
*RC U636:A4 6.979e-02
*RC U640:A1 6.164e-02
*RC U735:A1 6.164e-02
*END

*R_NET acc_r\[1\] 7.752e+00
*DRIVER acc_r_reg_1_:Q
*CELL DFFARX1_RVT
*C2_R1_C1 3.876e+00 8.117e-02 3.876e+00 
*LOADS
*RC U733:A4 6.979e-02
*RC U735:A3 6.806e-02
*RC U797:A5 7.189e-02
*END

*R_NET acc_r\[0\] 8.135e+00
*DRIVER acc_r_reg_0_:Q
*CELL DFFARX1_RVT
*C2_R1_C1 4.068e+00 8.117e-02 4.068e+00 
*LOADS
*RC U596:A2 8.895e-02
*RC U795:A1 6.544e-02
*RC U797:A2 6.572e-02
*END

*R_NET quo_r\[14\] 7.720e+00
*DRIVER quo_r_reg_14_:Q
*CELL DFFARX1_RVT
*C2_R1_C1 3.860e+00 8.117e-02 3.860e+00 
*LOADS
*RC U537:A2 6.572e-02
*RC U794:A4 6.890e-02
*RC U795:A6 7.425e-02
*END

*R_NET quo_r\[13\] 7.182e+00
*DRIVER quo_r_reg_13_:Q
*CELL DFFARX1_RVT
*C2_R1_C1 3.591e+00 8.117e-02 3.591e+00 
*LOADS
*RC U567:A1 6.164e-02
*RC U794:A2 6.572e-02
*RC U844:A1 6.696e-02
*END

*R_NET quo_r\[12\] 1.195e+01
*DRIVER quo_r_reg_12_:Q
*CELL DFFARX1_RVT
*C2_R1_C1 5.974e+00 1.542e-01 5.974e+00 
*LOADS
*RC U541:A1 7.029e-02
*RC U790:A1 6.705e-02
*RC U792:A1 8.589e-02
*RC U841:A2 7.494e-02
*RC U843:A1 7.029e-02
*END

*R_NET quo_r\[11\] 1.156e+01
*DRIVER quo_r_reg_11_:Q
*CELL DFFARX1_RVT
*C2_R1_C1 5.782e+00 1.542e-01 5.782e+00 
*LOADS
*RC U546:A1 7.029e-02
*RC U790:A2 5.625e-02
*RC U792:A2 7.519e-02
*RC U837:A1 7.635e-02
*RC U841:A4 7.856e-02
*END

*R_NET quo_r\[10\] 9.542e+00
*DRIVER quo_r_reg_10_:Q
*CELL DFFARX1_RVT
*C2_R1_C1 4.771e+00 1.158e-01 4.771e+00 
*LOADS
*RC U561:A1 6.595e-02
*RC U789:A2 7.055e-02
*RC U833:A4 7.372e-02
*RC U836:A1 6.595e-02
*END

*R_NET quo_r\[9\] 9.968e+00
*DRIVER quo_r_reg_9_:Q
*CELL DFFARX1_RVT
*C2_R1_C1 4.984e+00 1.158e-01 4.984e+00 
*LOADS
*RC U551:A1 6.595e-02
*RC U789:A1 8.059e-02
*RC U829:A1 7.164e-02
*RC U833:A2 7.031e-02
*END

*R_NET quo_r\[8\] 1.550e+01
*DRIVER quo_r_reg_8_:Q
*CELL DFFARX1_RVT
*C2_R1_C1 7.751e+00 1.969e-01 7.751e+00 
*LOADS
*RC U528:A2 1.079e-01
*RC U787:A1 9.138e-02
*RC U825:A2 7.974e-02
*RC U828:A1 7.479e-02
*RC U863:A1 7.376e-02
*RC U864:A1 8.105e-02
*END

*R_NET quo_r\[7\] 9.738e+00
*DRIVER quo_r_reg_7_:Q
*CELL DFFARX1_RVT
*C2_R1_C1 4.869e+00 1.158e-01 4.869e+00 
*LOADS
*RC U556:A1 6.595e-02
*RC U787:A2 7.055e-02
*RC U821:A1 7.164e-02
*RC U825:A4 7.372e-02
*END

*R_NET quo_r\[6\] 1.245e+01
*DRIVER quo_r_reg_6_:Q
*CELL DFFARX1_RVT
*C2_R1_C1 6.224e+00 1.542e-01 6.224e+00 
*LOADS
*RC U785:A1 8.589e-02
*RC U817:A2 7.494e-02
*RC U820:A3 7.760e-02
*RC U859:A1 6.932e-02
*RC U861:A1 7.618e-02
*END

*R_NET quo_r\[5\] 1.218e+01
*DRIVER quo_r_reg_5_:Q
*CELL DFFARX1_RVT
*C2_R1_C1 6.089e+00 1.542e-01 6.089e+00 
*LOADS
*RC U785:A2 7.519e-02
*RC U813:A1 7.635e-02
*RC U817:A4 7.856e-02
*RC U855:A1 6.932e-02
*RC U857:A1 7.618e-02
*END

*R_NET quo_r\[4\] 1.245e+01
*DRIVER quo_r_reg_4_:Q
*CELL DFFARX1_RVT
*C2_R1_C1 6.224e+00 1.542e-01 6.224e+00 
*LOADS
*RC U784:A1 8.589e-02
*RC U809:A2 7.494e-02
*RC U812:A3 7.760e-02
*RC U851:A1 6.932e-02
*RC U853:A1 7.618e-02
*END

*R_NET quo_r\[3\] 1.218e+01
*DRIVER quo_r_reg_3_:Q
*CELL DFFARX1_RVT
*C2_R1_C1 6.089e+00 1.542e-01 6.089e+00 
*LOADS
*RC U784:A2 7.519e-02
*RC U805:A1 7.635e-02
*RC U809:A4 7.856e-02
*RC U846:A1 6.932e-02
*RC U849:A1 7.618e-02
*END

*R_NET quo_r\[2\] 1.209e+01
*DRIVER quo_r_reg_2_:Q
*CELL DFFARX1_RVT
*C2_R1_C1 6.044e+00 1.542e-01 6.044e+00 
*LOADS
*RC U684:A1 7.029e-02
*RC U687:A1 7.480e-02
*RC U782:A2 7.519e-02
*RC U801:A2 7.494e-02
*RC U804:A3 7.760e-02
*END

*R_NET quo_r\[1\] 1.419e+01
*DRIVER quo_r_reg_1_:Q
*CELL DFFARX1_RVT
*C2_R1_C1 7.094e+00 1.969e-01 7.094e+00 
*LOADS
*RC U625:A2 6.642e-02
*RC U626:A2 8.229e-02
*RC U627:A2 7.473e-02
*RC U782:A3 7.486e-02
*RC U801:A4 8.359e-02
*RC U845:A4 8.359e-02
*END

*R_NET bu_r\[14\] 4.971e+00
*DRIVER bu_r_reg_14_:Q
*CELL DFFARX1_RVT
*C2_R1_C1 2.485e+00 5.002e-02 2.485e+00 
*LOADS
*RC U710:A1 6.063e-02
*RC U742:A4 6.368e-02
*END

*R_NET bu_r\[13\] 1.334e+01
*DRIVER bu_r_reg_13_:Q
*CELL DFFARX1_RVT
*C2_R1_C1 6.668e+00 8.117e-02 6.668e+00 
*LOADS
*RC U583:A3 7.241e-02
*RC U657:A3 6.806e-02
*RC U709:A 2.204e-01
*END

*R_NET bu_r\[12\] 1.757e+01
*DRIVER bu_r_reg_12_:Q
*CELL DFFARX1_RVT
*C2_R1_C1 8.787e+00 1.542e-01 8.787e+00 
*LOADS
*RC U583:A1 6.605e-02
*RC U594:A1 8.589e-02
*RC U616:A 2.512e-01
*RC U745:A4 6.680e-02
*RC U745:A2 7.207e-02
*END

*R_NET bu_r\[11\] 1.879e+01
*DRIVER bu_r_reg_11_:Q
*CELL DFFARX1_RVT
*C2_R1_C1 9.395e+00 1.542e-01 9.395e+00 
*LOADS
*RC U585:A3 8.256e-02
*RC U588:A1 6.932e-02
*RC U589:A2 1.003e-01
*RC U618:A 2.512e-01
*RC U666:A1 7.618e-02
*END

*R_NET bu_r\[10\] 1.562e+01
*DRIVER bu_r_reg_10_:Q
*CELL DFFARX1_RVT
*C2_R1_C1 7.809e+00 1.158e-01 7.809e+00 
*LOADS
*RC U585:A1 6.197e-02
*RC U590:A1 8.059e-02
*RC U620:A 2.357e-01
*RC U748:A4 7.372e-02
*END

*R_NET bu_r\[9\] 1.797e+01
*DRIVER bu_r_reg_9_:Q
*CELL DFFARX1_RVT
*C2_R1_C1 8.983e+00 1.542e-01 8.983e+00 
*LOADS
*RC U586:A1 7.389e-02
*RC U587:A1 7.029e-02
*RC U595:A3 8.256e-02
*RC U621:A 2.512e-01
*RC U669:A1 7.618e-02
*END

*R_NET bu_r\[8\] 1.489e+01
*DRIVER bu_r_reg_8_:Q
*CELL DFFARX1_RVT
*C2_R1_C1 7.446e+00 1.158e-01 7.446e+00 
*LOADS
*RC U586:A3 5.962e-02
*RC U595:A1 6.197e-02
*RC U628:A 2.357e-01
*RC U751:A4 7.372e-02
*END

*R_NET bu_r\[7\] 1.535e+01
*DRIVER bu_r_reg_7_:Q
*CELL DFFARX1_RVT
*C2_R1_C1 7.675e+00 1.158e-01 7.675e+00 
*LOADS
*RC U603:A3 6.707e-02
*RC U603:A1 7.001e-02
*RC U632:A 2.357e-01
*RC U676:A1 7.148e-02
*END

*R_NET bu_r\[6\] 1.050e+01
*DRIVER bu_r_reg_6_:Q
*CELL DFFARX1_RVT
*C2_R1_C1 5.251e+00 1.158e-01 5.251e+00 
*LOADS
*RC U601:A2 9.409e-02
*RC U602:A1 6.595e-02
*RC U612:A1 7.019e-02
*RC U754:A4 7.372e-02
*END

*R_NET bu_r\[5\] 1.535e+01
*DRIVER bu_r_reg_5_:Q
*CELL DFFARX1_RVT
*C2_R1_C1 7.675e+00 1.158e-01 7.675e+00 
*LOADS
*RC U600:A3 6.707e-02
*RC U600:A1 7.001e-02
*RC U634:A 2.357e-01
*RC U663:A1 7.148e-02
*END

*R_NET bu_r\[4\] 1.543e+01
*DRIVER bu_r_reg_4_:Q
*CELL DFFARX1_RVT
*C2_R1_C1 7.714e+00 1.158e-01 7.714e+00 
*LOADS
*RC U599:A3 6.707e-02
*RC U599:A1 7.001e-02
*RC U630:A 2.357e-01
*RC U757:A4 7.372e-02
*END

*R_NET bu_r\[3\] 1.581e+01
*DRIVER bu_r_reg_3_:Q
*CELL DFFARX1_RVT
*C2_R1_C1 7.906e+00 1.158e-01 7.906e+00 
*LOADS
*RC U462:A5 7.691e-02
*RC U462:A2 7.031e-02
*RC U614:A 2.357e-01
*RC U653:A4 7.467e-02
*END

*R_NET bu_r\[2\] 9.484e+00
*DRIVER bu_r_reg_2_:Q
*CELL DFFARX1_RVT
*C2_R1_C1 4.742e+00 1.158e-01 4.742e+00 
*LOADS
*RC U598:A3 6.707e-02
*RC U598:A1 7.001e-02
*RC U636:A1 6.595e-02
*RC U656:A1 7.148e-02
*END

*R_NET bu_r\[1\] 9.562e+00
*DRIVER bu_r_reg_1_:Q
*CELL DFFARX1_RVT
*C2_R1_C1 4.781e+00 1.158e-01 4.781e+00 
*LOADS
*RC U597:A3 6.707e-02
*RC U597:A1 7.001e-02
*RC U733:A1 6.595e-02
*RC U760:A4 7.372e-02
*END

*R_NET bu_r\[0\] 2.578e+00
*DRIVER bu_r_reg_0_:Q
*CELL DFFARX1_RVT
*C2_R1_C1 1.289e+00 2.192e-02 1.289e+00 
*LOADS
*RC U660:A4 5.653e-02
*END

*R_NET state_r\[2\] 9.263e+00
*DRIVER state_r_reg_2_:Q
*CELL DFFARX1_RVT
*C2_R1_C1 4.632e+00 1.158e-01 4.632e+00 
*LOADS
*RC U560:A1 6.929e-02
*RC U624:A1 6.933e-02
*RC U737:A3 6.882e-02
*RC U737:A1 6.065e-02
*END

*R_NET state_r\[1\] 7.131e+00
*DRIVER state_r_reg_1_:Q
*CELL DFFARX1_RVT
*C2_R1_C1 3.565e+00 8.117e-02 3.565e+00 
*LOADS
*RC U505:A1 7.533e-02
*RC U577:A1 6.066e-02
*RC U737:A2 5.694e-02
*END

*R_NET state_r\[0\] 4.802e+00
*DRIVER state_r_reg_0_:Q
*CELL DFFARX1_RVT
*C2_R1_C1 2.401e+00 5.002e-02 2.401e+00 
*LOADS
*RC U577:A2 5.047e-02
*RC U579:A1 6.962e-02
*END

*R_NET next_state_0_ 2.528e+00
*DRIVER U740:Y
*CELL NAND2X0_RVT
*C2_R1_C1 1.264e+00 2.192e-02 1.264e+00 
*LOADS
*RC state_r_reg_0_:D 5.543e-02
*END

*R_NET au_r\[14\] 5.092e+00
*DRIVER au_r_reg_14_:Q
*CELL DFFARX1_RVT
*C2_R1_C1 2.546e+00 5.002e-02 2.546e+00 
*LOADS
*RC U762:A4 6.368e-02
*RC U795:A4 6.368e-02
*END

*R_NET au_r\[13\] 5.213e+00
*DRIVER au_r_reg_13_:Q
*CELL DFFARX1_RVT
*C2_R1_C1 2.606e+00 5.002e-02 2.606e+00 
*LOADS
*RC U673:A1 6.175e-02
*RC U794:A6 6.862e-02
*END

*R_NET au_r\[12\] 5.125e+00
*DRIVER au_r_reg_12_:Q
*CELL DFFARX1_RVT
*C2_R1_C1 2.563e+00 5.002e-02 2.563e+00 
*LOADS
*RC U765:A4 6.368e-02
*RC U843:A4 6.450e-02
*END

*R_NET au_r\[11\] 5.213e+00
*DRIVER au_r_reg_11_:Q
*CELL DFFARX1_RVT
*C2_R1_C1 2.606e+00 5.002e-02 2.606e+00 
*LOADS
*RC U679:A1 6.175e-02
*RC U841:A6 6.862e-02
*END

*R_NET au_r\[10\] 5.125e+00
*DRIVER au_r_reg_10_:Q
*CELL DFFARX1_RVT
*C2_R1_C1 2.563e+00 5.002e-02 2.563e+00 
*LOADS
*RC U768:A4 6.368e-02
*RC U836:A4 6.450e-02
*END

*R_NET au_r\[9\] 5.213e+00
*DRIVER au_r_reg_9_:Q
*CELL DFFARX1_RVT
*C2_R1_C1 2.606e+00 5.002e-02 2.606e+00 
*LOADS
*RC U683:A1 6.175e-02
*RC U833:A6 6.862e-02
*END

*R_NET au_r\[8\] 5.125e+00
*DRIVER au_r_reg_8_:Q
*CELL DFFARX1_RVT
*C2_R1_C1 2.563e+00 5.002e-02 2.563e+00 
*LOADS
*RC U771:A4 6.368e-02
*RC U828:A4 6.450e-02
*END

*R_NET au_r\[7\] 5.213e+00
*DRIVER au_r_reg_7_:Q
*CELL DFFARX1_RVT
*C2_R1_C1 2.606e+00 5.002e-02 2.606e+00 
*LOADS
*RC U691:A1 6.175e-02
*RC U825:A6 6.862e-02
*END

*R_NET au_r\[6\] 4.822e+00
*DRIVER au_r_reg_6_:Q
*CELL DFFARX1_RVT
*C2_R1_C1 2.411e+00 5.002e-02 2.411e+00 
*LOADS
*RC U774:A4 6.368e-02
*RC U820:A2 5.692e-02
*END

*R_NET au_r\[5\] 5.171e+00
*DRIVER au_r_reg_5_:Q
*CELL DFFARX1_RVT
*C2_R1_C1 2.586e+00 5.002e-02 2.586e+00 
*LOADS
*RC U692:A3 6.290e-02
*RC U817:A5 6.644e-02
*END

*R_NET au_r\[4\] 4.747e+00
*DRIVER au_r_reg_4_:Q
*CELL DFFARX1_RVT
*C2_R1_C1 2.373e+00 5.002e-02 2.373e+00 
*LOADS
*RC U698:A1 6.175e-02
*RC U812:A1 5.697e-02
*END

*R_NET au_r\[3\] 5.203e+00
*DRIVER au_r_reg_3_:Q
*CELL DFFARX1_RVT
*C2_R1_C1 2.601e+00 5.002e-02 2.601e+00 
*LOADS
*RC U777:A4 6.368e-02
*RC U809:A5 6.644e-02
*END

*R_NET au_r\[2\] 4.791e+00
*DRIVER au_r_reg_2_:Q
*CELL DFFARX1_RVT
*C2_R1_C1 2.395e+00 5.002e-02 2.395e+00 
*LOADS
*RC U700:A3 6.290e-02
*RC U804:A2 5.692e-02
*END

*R_NET au_r\[1\] 7.158e+00
*DRIVER au_r_reg_1_:Q
*CELL DFFARX1_RVT
*C2_R1_C1 3.579e+00 8.117e-02 3.579e+00 
*LOADS
*RC U780:A4 5.859e-02
*RC U780:A2 6.321e-02
*RC U801:A5 7.189e-02
*END

*R_NET au_r\[0\] 4.855e+00
*DRIVER au_r_reg_0_:Q
*CELL DFFARX1_RVT
*C2_R1_C1 2.428e+00 5.002e-02 2.428e+00 
*LOADS
*RC U623:A2 5.692e-02
*RC U680:A4 6.450e-02
*END

*R_NET sig_diff_r 1.084e+01
*DRIVER sig_diff_r_reg:Q
*CELL DFFARX1_RVT
*C2_R1_C1 5.420e+00 1.158e-01 5.420e+00 
*LOADS
*RC U460:A2 9.516e-02
*RC U467:A1 8.116e-02
*RC U648:A1 6.595e-02
*RC U868:A1 7.148e-02
*END

*R_NET a\[0\] 9.941e+00
*DRIVER a\[0\]
*CELL NBUFFX4_RVT
*C2_R1_C1 4.970e+00 1.158e-01 4.970e+00 
*LOADS
*RC U461:A1 6.702e-02
*RC U494:A3 8.461e-02
*RC U680:A2 6.589e-02
*RC U779:A1 7.019e-02
*END

*R_NET b\[0\] 1.253e+01
*DRIVER b\[0\]
*CELL NBUFFX4_RVT
*C2_R1_C1 6.267e+00 1.542e-01 6.267e+00 
*LOADS
*RC U483:A3 7.991e-02
*RC U650:A1 8.771e-02
*RC U660:A2 7.023e-02
*RC U758:A1 7.480e-02
*RC U759:A1 7.389e-02
*END

*R_NET N209 1.787e+01
*DRIVER quo_r_reg_0_:Q
*CELL DFFARX1_RVT
*C2_R1_C1 8.934e+00 2.441e-01 8.934e+00 
*LOADS
*RC U623:A3 8.778e-02
*RC U625:A1 8.462e-02
*RC U626:A1 8.359e-02
*RC U699:A2 7.944e-02
*RC U728:A3 9.339e-02
*RC U782:A1 9.715e-02
*RC U799:A1 9.715e-02
*END

*R_NET n341 2.528e+00
*DRIVER U869:Y
*CELL NAND2X0_RVT
*C2_R1_C1 1.264e+00 2.192e-02 1.264e+00 
*LOADS
*RC val_r_reg_14_:D 5.543e-02
*END

*R_NET n342 2.528e+00
*DRIVER U568:Y
*CELL OR2X1_RVT
*C2_R1_C1 1.264e+00 2.192e-02 1.264e+00 
*LOADS
*RC val_r_reg_13_:D 5.543e-02
*END

*R_NET n343 2.528e+00
*DRIVER U542:Y
*CELL OR2X1_RVT
*C2_R1_C1 1.264e+00 2.192e-02 1.264e+00 
*LOADS
*RC val_r_reg_12_:D 5.543e-02
*END

*R_NET n344 2.528e+00
*DRIVER U547:Y
*CELL OR2X1_RVT
*C2_R1_C1 1.264e+00 2.192e-02 1.264e+00 
*LOADS
*RC val_r_reg_11_:D 5.543e-02
*END

*R_NET n345 2.528e+00
*DRIVER U562:Y
*CELL OR2X1_RVT
*C2_R1_C1 1.264e+00 2.192e-02 1.264e+00 
*LOADS
*RC val_r_reg_10_:D 5.543e-02
*END

*R_NET n346 2.528e+00
*DRIVER U552:Y
*CELL OR2X1_RVT
*C2_R1_C1 1.264e+00 2.192e-02 1.264e+00 
*LOADS
*RC val_r_reg_9_:D 5.543e-02
*END

*R_NET n347 2.528e+00
*DRIVER U865:Y
*CELL NAND2X0_RVT
*C2_R1_C1 1.264e+00 2.192e-02 1.264e+00 
*LOADS
*RC val_r_reg_8_:D 5.543e-02
*END

*R_NET n348 2.528e+00
*DRIVER U557:Y
*CELL OR2X1_RVT
*C2_R1_C1 1.264e+00 2.192e-02 1.264e+00 
*LOADS
*RC val_r_reg_7_:D 5.543e-02
*END

*R_NET n349 2.528e+00
*DRIVER U862:Y
*CELL NAND2X0_RVT
*C2_R1_C1 1.264e+00 2.192e-02 1.264e+00 
*LOADS
*RC val_r_reg_6_:D 5.543e-02
*END

*R_NET n350 2.528e+00
*DRIVER U858:Y
*CELL NAND2X0_RVT
*C2_R1_C1 1.264e+00 2.192e-02 1.264e+00 
*LOADS
*RC val_r_reg_5_:D 5.543e-02
*END

*R_NET n351 2.528e+00
*DRIVER U854:Y
*CELL NAND2X0_RVT
*C2_R1_C1 1.264e+00 2.192e-02 1.264e+00 
*LOADS
*RC val_r_reg_4_:D 5.543e-02
*END

*R_NET n352 2.528e+00
*DRIVER U850:Y
*CELL NAND2X0_RVT
*C2_R1_C1 1.264e+00 2.192e-02 1.264e+00 
*LOADS
*RC val_r_reg_3_:D 5.543e-02
*END

*R_NET n353 2.528e+00
*DRIVER U688:Y
*CELL OA222X1_RVT
*C2_R1_C1 1.264e+00 2.192e-02 1.264e+00 
*LOADS
*RC val_r_reg_2_:D 5.543e-02
*END

*R_NET n354 2.528e+00
*DRIVER U845:Y
*CELL AO222X1_RVT
*C2_R1_C1 1.264e+00 2.192e-02 1.264e+00 
*LOADS
*RC val_r_reg_1_:D 5.543e-02
*END

*R_NET n355 2.528e+00
*DRIVER U699:Y
*CELL AO22X1_RVT
*C2_R1_C1 1.264e+00 2.192e-02 1.264e+00 
*LOADS
*RC val_r_reg_0_:D 5.543e-02
*END

*R_NET n356 2.528e+00
*DRIVER U707:Y
*CELL AO21X1_RVT
*C2_R1_C1 1.264e+00 2.192e-02 1.264e+00 
*LOADS
*RC val_r_reg_15_:D 5.543e-02
*END

*R_NET n357 2.528e+00
*DRIVER U611:Y
*CELL AO221X1_RVT
*C2_R1_C1 1.264e+00 2.192e-02 1.264e+00 
*LOADS
*RC valid_r_reg:D 5.543e-02
*END

*R_NET n358 2.528e+00
*DRIVER U520:Y
*CELL MUX21X1_RVT
*C2_R1_C1 1.264e+00 2.192e-02 1.264e+00 
*LOADS
*RC busy_r_reg:D 5.543e-02
*END

*R_NET n359 2.528e+00
*DRIVER U844:Y
*CELL AO221X1_RVT
*C2_R1_C1 1.264e+00 2.192e-02 1.264e+00 
*LOADS
*RC quo_r_reg_13_:D 5.543e-02
*END

*R_NET n360 2.528e+00
*DRIVER U841:Y
*CELL AO222X1_RVT
*C2_R1_C1 1.264e+00 2.192e-02 1.264e+00 
*LOADS
*RC quo_r_reg_12_:D 5.543e-02
*END

*R_NET n361 2.528e+00
*DRIVER U837:Y
*CELL AO221X1_RVT
*C2_R1_C1 1.264e+00 2.192e-02 1.264e+00 
*LOADS
*RC quo_r_reg_11_:D 5.543e-02
*END

*R_NET n362 2.528e+00
*DRIVER U833:Y
*CELL AO222X1_RVT
*C2_R1_C1 1.264e+00 2.192e-02 1.264e+00 
*LOADS
*RC quo_r_reg_10_:D 5.543e-02
*END

*R_NET n363 2.528e+00
*DRIVER U829:Y
*CELL AO221X1_RVT
*C2_R1_C1 1.264e+00 2.192e-02 1.264e+00 
*LOADS
*RC quo_r_reg_9_:D 5.543e-02
*END

*R_NET n364 2.528e+00
*DRIVER U825:Y
*CELL AO222X1_RVT
*C2_R1_C1 1.264e+00 2.192e-02 1.264e+00 
*LOADS
*RC quo_r_reg_8_:D 5.543e-02
*END

*R_NET n365 2.528e+00
*DRIVER U821:Y
*CELL AO221X1_RVT
*C2_R1_C1 1.264e+00 2.192e-02 1.264e+00 
*LOADS
*RC quo_r_reg_7_:D 5.543e-02
*END

*R_NET n366 2.528e+00
*DRIVER U817:Y
*CELL AO222X1_RVT
*C2_R1_C1 1.264e+00 2.192e-02 1.264e+00 
*LOADS
*RC quo_r_reg_6_:D 5.543e-02
*END
