*SPEF "IEEE 1481-1999"
*DESIGN "fxp_sqrt"
*DATE "Thu Dec  5 13:11:12 2024"
*VENDOR "SYNOPSYS INC"
*PROGRAM "Synopsys Design Compiler cmos"
*VERSION "V-2023.12-SP5"
*DESIGN_FLOW "SYNTHESIS"
*DIVIDER /
*DELIMITER :
*BUS_DELIMITER []
*T_UNIT 1.0 NS
*C_UNIT 0.0010 PF
*R_UNIT 1000.0 KOHM
*L_UNIT 1.0 HENRY

*PORTS

clk I *L 0.000e+00 *S 4.093e-03 2.599e-02 *D NBUFFX4_RVT 
start I *L 0.000e+00 *S 6.414e-03 1.336e-02 *D NBUFFX4_RVT 
reset_n I *L 0.000e+00 *S 1.341e-02 1.527e-02 *D NBUFFX4_RVT 
busy O *L 3.000e-01 *S 1.891e-02 2.154e-02 
valid O *L 3.000e-01 *S 7.581e-03 8.704e-03 
rad\[15\] I *L 0.000e+00 *S 2.023e-03 3.997e-02 *D NBUFFX4_RVT 
rad\[14\] I *L 0.000e+00 *S 2.023e-03 3.997e-02 *D NBUFFX4_RVT 
rad\[13\] I *L 0.000e+00 *S 2.023e-03 3.997e-02 *D NBUFFX4_RVT 
rad\[12\] I *L 0.000e+00 *S 2.023e-03 3.997e-02 *D NBUFFX4_RVT 
rad\[11\] I *L 0.000e+00 *S 2.023e-03 3.997e-02 *D NBUFFX4_RVT 
rad\[10\] I *L 0.000e+00 *S 2.023e-03 3.997e-02 *D NBUFFX4_RVT 
rad\[9\] I *L 0.000e+00 *S 2.023e-03 3.997e-02 *D NBUFFX4_RVT 
rad\[8\] I *L 0.000e+00 *S 2.023e-03 3.997e-02 *D NBUFFX4_RVT 
rad\[7\] I *L 0.000e+00 *S 2.023e-03 3.997e-02 *D NBUFFX4_RVT 
rad\[6\] I *L 0.000e+00 *S 2.023e-03 3.997e-02 *D NBUFFX4_RVT 
rad\[5\] I *L 0.000e+00 *S 2.023e-03 3.997e-02 *D NBUFFX4_RVT 
rad\[4\] I *L 0.000e+00 *S 2.023e-03 3.997e-02 *D NBUFFX4_RVT 
rad\[3\] I *L 0.000e+00 *S 2.023e-03 3.997e-02 *D NBUFFX4_RVT 
rad\[2\] I *L 0.000e+00 *S 2.023e-03 3.997e-02 *D NBUFFX4_RVT 
rad\[1\] I *L 0.000e+00 *S 1.891e-03 4.134e-02 *D NBUFFX4_RVT 
rad\[0\] I *L 0.000e+00 *S 1.891e-03 4.134e-02 *D NBUFFX4_RVT 
root\[15\] O *L 3.000e-01 *S 8.626e-03 9.875e-03 
root\[14\] O *L 3.000e-01 *S 8.626e-03 9.875e-03 
root\[13\] O *L 3.000e-01 *S 8.626e-03 9.875e-03 
root\[12\] O *L 3.000e-01 *S 8.626e-03 9.875e-03 
root\[11\] O *L 3.000e-01 *S 8.626e-03 9.875e-03 
root\[10\] O *L 3.000e-01 *S 8.626e-03 9.875e-03 
root\[9\] O *L 3.000e-01 *S 8.626e-03 9.875e-03 
root\[8\] O *L 3.000e-01 *S 8.626e-03 9.875e-03 
root\[7\] O *L 3.000e-01 *S 8.626e-03 9.875e-03 
root\[6\] O *L 3.000e-01 *S 8.626e-03 9.875e-03 
root\[5\] O *L 3.000e-01 *S 8.626e-03 9.875e-03 
root\[4\] O *L 3.000e-01 *S 8.626e-03 9.875e-03 
root\[3\] O *L 3.000e-01 *S 8.626e-03 9.875e-03 
root\[2\] O *L 3.000e-01 *S 8.626e-03 9.875e-03 
root\[1\] O *L 3.000e-01 *S 8.626e-03 9.875e-03 
root\[0\] O *L 3.000e-01 *S 7.581e-03 8.704e-03 
rem\[15\] O *L 3.000e-01 *S 8.532e-03 9.770e-03 
rem\[14\] O *L 3.000e-01 *S 8.532e-03 9.770e-03 
rem\[13\] O *L 3.000e-01 *S 8.532e-03 9.770e-03 
rem\[12\] O *L 3.000e-01 *S 8.532e-03 9.770e-03 
rem\[11\] O *L 3.000e-01 *S 8.532e-03 9.770e-03 
rem\[10\] O *L 3.000e-01 *S 8.532e-03 9.770e-03 
rem\[9\] O *L 3.000e-01 *S 8.532e-03 9.770e-03 
rem\[8\] O *L 3.000e-01 *S 8.532e-03 9.770e-03 
rem\[7\] O *L 3.000e-01 *S 8.532e-03 9.770e-03 
rem\[6\] O *L 3.000e-01 *S 8.532e-03 9.770e-03 
rem\[5\] O *L 3.000e-01 *S 8.532e-03 9.770e-03 
rem\[4\] O *L 3.000e-01 *S 8.532e-03 9.770e-03 
rem\[3\] O *L 3.000e-01 *S 8.532e-03 9.770e-03 
rem\[2\] O *L 3.000e-01 *S 8.532e-03 9.770e-03 
rem\[1\] O *L 3.000e-01 *S 8.532e-03 9.770e-03 
rem\[0\] O *L 3.000e-01 *S 7.837e-03 8.991e-03 

*R_NET clk 3.950e+01
*DRIVER clk
*CELL NBUFFX4_RVT
*C2_R1_C1 1.975e+01 5.632e-01 1.975e+01 
*LOADS
*RC q_reg_12_:CLK 1.528e-01
*RC rem_reg_13_:CLK 1.528e-01
*RC q_reg_9_:CLK 1.528e-01
*RC root_reg_2_:CLK 1.528e-01
*RC x_reg_12_:CLK 1.528e-01
*RC rem_reg_7_:CLK 1.528e-01
*RC ac_reg_3_:CLK 1.528e-01
*RC rem_reg_3_:CLK 1.528e-01
*RC root_reg_6_:CLK 1.528e-01
*RC valid_reg:CLK 1.528e-01
*RC it_reg_3_:CLK 1.528e-01
*RC U123:A 1.738e-01
*END

*R_NET start 8.974e+00
*DRIVER start
*CELL NBUFFX4_RVT
*C2_R1_C1 4.487e+00 8.117e-02 4.487e+00 
*LOADS
*RC U127:A2 7.648e-02
*RC U143:A 1.001e-01
*RC U151:A3 6.622e-02
*END

*R_NET reset_n 2.105e+01
*DRIVER reset_n
*CELL NBUFFX4_RVT
*C2_R1_C1 1.053e+01 2.964e-01 1.053e+01 
*LOADS
*RC U127:A1 9.856e-02
*RC U160:A1 8.991e-02
*RC U166:A1 1.039e-01
*RC U188:A3 7.175e-02
*RC U249:A1 1.039e-01
*RC U250:A1 1.039e-01
*RC U251:A1 1.039e-01
*RC U257:A1 1.039e-01
*END

*R_NET busy 7.638e+00
*DRIVER busy_reg:Q
*CELL DFFX1_RVT
*C2_R1_C1 3.819e+00 1.158e-01 3.819e+00 
*LOADS
*RC U159:A2 7.055e-02
*RC U142:A1 7.019e-02
*RC U151:A1 7.148e-02
*RC busy 8.849e-03
*END

*R_NET valid 2.460e+00
*DRIVER valid_reg:Q
*CELL DFFX1_RVT
*C2_R1_C1 1.230e+00 5.002e-02 1.230e+00 
*LOADS
*RC U187:A2 5.390e-02
*RC valid 7.627e-03
*END

*R_NET rad\[15\] 2.578e+00
*DRIVER rad\[15\]
*CELL NBUFFX4_RVT
*C2_R1_C1 1.289e+00 2.192e-02 1.289e+00 
*LOADS
*RC U260:A4 5.653e-02
*END

*R_NET rad\[14\] 2.578e+00
*DRIVER rad\[14\]
*CELL NBUFFX4_RVT
*C2_R1_C1 1.289e+00 2.192e-02 1.289e+00 
*LOADS
*RC U258:A4 5.653e-02
*END

*R_NET rad\[13\] 2.578e+00
*DRIVER rad\[13\]
*CELL NBUFFX4_RVT
*C2_R1_C1 1.289e+00 2.192e-02 1.289e+00 
*LOADS
*RC U178:A4 5.653e-02
*END

*R_NET rad\[12\] 2.578e+00
*DRIVER rad\[12\]
*CELL NBUFFX4_RVT
*C2_R1_C1 1.289e+00 2.192e-02 1.289e+00 
*LOADS
*RC U184:A4 5.653e-02
*END

*R_NET rad\[11\] 2.578e+00
*DRIVER rad\[11\]
*CELL NBUFFX4_RVT
*C2_R1_C1 1.289e+00 2.192e-02 1.289e+00 
*LOADS
*RC U177:A4 5.653e-02
*END

*R_NET rad\[10\] 2.578e+00
*DRIVER rad\[10\]
*CELL NBUFFX4_RVT
*C2_R1_C1 1.289e+00 2.192e-02 1.289e+00 
*LOADS
*RC U209:A4 5.653e-02
*END

*R_NET rad\[9\] 2.578e+00
*DRIVER rad\[9\]
*CELL NBUFFX4_RVT
*C2_R1_C1 1.289e+00 2.192e-02 1.289e+00 
*LOADS
*RC U176:A4 5.653e-02
*END

*R_NET rad\[8\] 2.578e+00
*DRIVER rad\[8\]
*CELL NBUFFX4_RVT
*C2_R1_C1 1.289e+00 2.192e-02 1.289e+00 
*LOADS
*RC U183:A4 5.653e-02
*END

*R_NET rad\[7\] 2.578e+00
*DRIVER rad\[7\]
*CELL NBUFFX4_RVT
*C2_R1_C1 1.289e+00 2.192e-02 1.289e+00 
*LOADS
*RC U175:A4 5.653e-02
*END

*R_NET rad\[6\] 2.578e+00
*DRIVER rad\[6\]
*CELL NBUFFX4_RVT
*C2_R1_C1 1.289e+00 2.192e-02 1.289e+00 
*LOADS
*RC U182:A4 5.653e-02
*END

*R_NET rad\[5\] 2.578e+00
*DRIVER rad\[5\]
*CELL NBUFFX4_RVT
*C2_R1_C1 1.289e+00 2.192e-02 1.289e+00 
*LOADS
*RC U174:A4 5.653e-02
*END

*R_NET rad\[4\] 2.578e+00
*DRIVER rad\[4\]
*CELL NBUFFX4_RVT
*C2_R1_C1 1.289e+00 2.192e-02 1.289e+00 
*LOADS
*RC U181:A4 5.653e-02
*END

*R_NET rad\[3\] 2.578e+00
*DRIVER rad\[3\]
*CELL NBUFFX4_RVT
*C2_R1_C1 1.289e+00 2.192e-02 1.289e+00 
*LOADS
*RC U173:A4 5.653e-02
*END

*R_NET rad\[2\] 2.578e+00
*DRIVER rad\[2\]
*CELL NBUFFX4_RVT
*C2_R1_C1 1.289e+00 2.192e-02 1.289e+00 
*LOADS
*RC U180:A4 5.653e-02
*END

*R_NET rad\[1\] 2.382e+00
*DRIVER rad\[1\]
*CELL NBUFFX4_RVT
*C2_R1_C1 1.191e+00 2.192e-02 1.191e+00 
*LOADS
*RC U172:A2 5.223e-02
*END

*R_NET rad\[0\] 2.382e+00
*DRIVER rad\[0\]
*CELL NBUFFX4_RVT
*C2_R1_C1 1.191e+00 2.192e-02 1.191e+00 
*LOADS
*RC U179:A2 5.223e-02
*END

*R_NET root\[15\] 2.884e+00
*DRIVER root_reg_15_:Q
*CELL DFFX1_RVT
*C2_R1_C1 1.442e+00 5.002e-02 1.442e+00 
*LOADS
*RC U194:A4 6.450e-02
*RC root\[15\] 7.627e-03
*END

*R_NET root\[14\] 2.884e+00
*DRIVER root_reg_14_:Q
*CELL DFFX1_RVT
*C2_R1_C1 1.442e+00 5.002e-02 1.442e+00 
*LOADS
*RC U195:A4 6.450e-02
*RC root\[14\] 7.627e-03
*END

*R_NET root\[13\] 2.884e+00
*DRIVER root_reg_13_:Q
*CELL DFFX1_RVT
*C2_R1_C1 1.442e+00 5.002e-02 1.442e+00 
*LOADS
*RC U196:A4 6.450e-02
*RC root\[13\] 7.627e-03
*END

*R_NET root\[12\] 2.884e+00
*DRIVER root_reg_12_:Q
*CELL DFFX1_RVT
*C2_R1_C1 1.442e+00 5.002e-02 1.442e+00 
*LOADS
*RC U197:A4 6.450e-02
*RC root\[12\] 7.627e-03
*END

*R_NET root\[11\] 2.884e+00
*DRIVER root_reg_11_:Q
*CELL DFFX1_RVT
*C2_R1_C1 1.442e+00 5.002e-02 1.442e+00 
*LOADS
*RC U198:A4 6.450e-02
*RC root\[11\] 7.627e-03
*END

*R_NET root\[10\] 2.884e+00
*DRIVER root_reg_10_:Q
*CELL DFFX1_RVT
*C2_R1_C1 1.442e+00 5.002e-02 1.442e+00 
*LOADS
*RC U199:A4 6.450e-02
*RC root\[10\] 7.627e-03
*END

*R_NET root\[9\] 2.884e+00
*DRIVER root_reg_9_:Q
*CELL DFFX1_RVT
*C2_R1_C1 1.442e+00 5.002e-02 1.442e+00 
*LOADS
*RC U200:A4 6.450e-02
*RC root\[9\] 7.627e-03
*END

*R_NET root\[8\] 2.884e+00
*DRIVER root_reg_8_:Q
*CELL DFFX1_RVT
*C2_R1_C1 1.442e+00 5.002e-02 1.442e+00 
*LOADS
*RC U201:A4 6.450e-02
*RC root\[8\] 7.627e-03
*END

*R_NET root\[7\] 2.884e+00
*DRIVER root_reg_7_:Q
*CELL DFFX1_RVT
*C2_R1_C1 1.442e+00 5.002e-02 1.442e+00 
*LOADS
*RC U202:A4 6.450e-02
*RC root\[7\] 7.627e-03
*END

*R_NET root\[6\] 2.884e+00
*DRIVER root_reg_6_:Q
*CELL DFFX1_RVT
*C2_R1_C1 1.442e+00 5.002e-02 1.442e+00 
*LOADS
*RC U203:A4 6.450e-02
*RC root\[6\] 7.627e-03
*END

*R_NET root\[5\] 2.884e+00
*DRIVER root_reg_5_:Q
*CELL DFFX1_RVT
*C2_R1_C1 1.442e+00 5.002e-02 1.442e+00 
*LOADS
*RC U204:A4 6.450e-02
*RC root\[5\] 7.627e-03
*END

*R_NET root\[4\] 2.884e+00
*DRIVER root_reg_4_:Q
*CELL DFFX1_RVT
*C2_R1_C1 1.442e+00 5.002e-02 1.442e+00 
*LOADS
*RC U205:A4 6.450e-02
*RC root\[4\] 7.627e-03
*END

*R_NET root\[3\] 2.884e+00
*DRIVER root_reg_3_:Q
*CELL DFFX1_RVT
*C2_R1_C1 1.442e+00 5.002e-02 1.442e+00 
*LOADS
*RC U206:A4 6.450e-02
*RC root\[3\] 7.627e-03
*END

*R_NET root\[2\] 2.884e+00
*DRIVER root_reg_2_:Q
*CELL DFFX1_RVT
*C2_R1_C1 1.442e+00 5.002e-02 1.442e+00 
*LOADS
*RC U207:A4 6.450e-02
*RC root\[2\] 7.627e-03
*END

*R_NET root\[1\] 2.884e+00
*DRIVER root_reg_1_:Q
*CELL DFFX1_RVT
*C2_R1_C1 1.442e+00 5.002e-02 1.442e+00 
*LOADS
*RC U208:A4 6.450e-02
*RC root\[1\] 7.627e-03
*END

*R_NET root\[0\] 2.460e+00
*DRIVER root_reg_0_:Q
*CELL DFFX1_RVT
*C2_R1_C1 1.230e+00 5.002e-02 1.230e+00 
*LOADS
*RC U190:A2 5.390e-02
*RC root\[0\] 7.627e-03
*END

*R_NET rem\[15\] 2.851e+00
*DRIVER rem_reg_15_:Q
*CELL DFFX1_RVT
*C2_R1_C1 1.426e+00 5.002e-02 1.426e+00 
*LOADS
*RC U286:A4 6.368e-02
*RC rem\[15\] 7.627e-03
*END

*R_NET rem\[14\] 2.851e+00
*DRIVER rem_reg_14_:Q
*CELL DFFX1_RVT
*C2_R1_C1 1.426e+00 5.002e-02 1.426e+00 
*LOADS
*RC U285:A4 6.368e-02
*RC rem\[14\] 7.627e-03
*END

*R_NET rem\[13\] 2.851e+00
*DRIVER rem_reg_13_:Q
*CELL DFFX1_RVT
*C2_R1_C1 1.426e+00 5.002e-02 1.426e+00 
*LOADS
*RC U284:A4 6.368e-02
*RC rem\[13\] 7.627e-03
*END

*R_NET rem\[12\] 2.851e+00
*DRIVER rem_reg_12_:Q
*CELL DFFX1_RVT
*C2_R1_C1 1.426e+00 5.002e-02 1.426e+00 
*LOADS
*RC U283:A4 6.368e-02
*RC rem\[12\] 7.627e-03
*END

*R_NET rem\[11\] 2.851e+00
*DRIVER rem_reg_11_:Q
*CELL DFFX1_RVT
*C2_R1_C1 1.426e+00 5.002e-02 1.426e+00 
*LOADS
*RC U282:A4 6.368e-02
*RC rem\[11\] 7.627e-03
*END

*R_NET rem\[10\] 2.851e+00
*DRIVER rem_reg_10_:Q
*CELL DFFX1_RVT
*C2_R1_C1 1.426e+00 5.002e-02 1.426e+00 
*LOADS
*RC U281:A4 6.368e-02
*RC rem\[10\] 7.627e-03
*END

*R_NET rem\[9\] 2.851e+00
*DRIVER rem_reg_9_:Q
*CELL DFFX1_RVT
*C2_R1_C1 1.426e+00 5.002e-02 1.426e+00 
*LOADS
*RC U280:A4 6.368e-02
*RC rem\[9\] 7.627e-03
*END

*R_NET rem\[8\] 2.851e+00
*DRIVER rem_reg_8_:Q
*CELL DFFX1_RVT
*C2_R1_C1 1.426e+00 5.002e-02 1.426e+00 
*LOADS
*RC U279:A4 6.368e-02
*RC rem\[8\] 7.627e-03
*END

*R_NET rem\[7\] 2.851e+00
*DRIVER rem_reg_7_:Q
*CELL DFFX1_RVT
*C2_R1_C1 1.426e+00 5.002e-02 1.426e+00 
*LOADS
*RC U278:A4 6.368e-02
*RC rem\[7\] 7.627e-03
*END

*R_NET rem\[6\] 2.851e+00
*DRIVER rem_reg_6_:Q
*CELL DFFX1_RVT
*C2_R1_C1 1.426e+00 5.002e-02 1.426e+00 
*LOADS
*RC U277:A4 6.368e-02
*RC rem\[6\] 7.627e-03
*END

*R_NET rem\[5\] 2.851e+00
*DRIVER rem_reg_5_:Q
*CELL DFFX1_RVT
*C2_R1_C1 1.426e+00 5.002e-02 1.426e+00 
*LOADS
*RC U276:A4 6.368e-02
*RC rem\[5\] 7.627e-03
*END

*R_NET rem\[4\] 2.851e+00
*DRIVER rem_reg_4_:Q
*CELL DFFX1_RVT
*C2_R1_C1 1.426e+00 5.002e-02 1.426e+00 
*LOADS
*RC U275:A4 6.368e-02
*RC rem\[4\] 7.627e-03
*END

*R_NET rem\[3\] 2.851e+00
*DRIVER rem_reg_3_:Q
*CELL DFFX1_RVT
*C2_R1_C1 1.426e+00 5.002e-02 1.426e+00 
*LOADS
*RC U274:A4 6.368e-02
*RC rem\[3\] 7.627e-03
*END

*R_NET rem\[2\] 2.851e+00
*DRIVER rem_reg_2_:Q
*CELL DFFX1_RVT
*C2_R1_C1 1.426e+00 5.002e-02 1.426e+00 
*LOADS
*RC U273:A4 6.368e-02
*RC rem\[2\] 7.627e-03
*END

*R_NET rem\[1\] 2.851e+00
*DRIVER rem_reg_1_:Q
*CELL DFFX1_RVT
*C2_R1_C1 1.426e+00 5.002e-02 1.426e+00 
*LOADS
*RC U272:A4 6.368e-02
*RC rem\[1\] 7.627e-03
*END

*R_NET rem\[0\] 2.583e+00
*DRIVER rem_reg_0_:Q
*CELL DFFX1_RVT
*C2_R1_C1 1.291e+00 5.002e-02 1.291e+00 
*LOADS
*RC U192:A1 5.697e-02
*RC rem\[0\] 7.627e-03
*END

*R_NET x\[15\] 2.275e+00
*DRIVER x_reg_15_:Q
*CELL DFFX1_RVT
*C2_R1_C1 1.138e+00 2.192e-02 1.138e+00 
*LOADS
*RC U260:A2 4.989e-02
*END

*R_NET x\[14\] 2.275e+00
*DRIVER x_reg_14_:Q
*CELL DFFX1_RVT
*C2_R1_C1 1.138e+00 2.192e-02 1.138e+00 
*LOADS
*RC U258:A2 4.989e-02
*END

*R_NET x\[13\] 2.275e+00
*DRIVER x_reg_13_:Q
*CELL DFFX1_RVT
*C2_R1_C1 1.138e+00 2.192e-02 1.138e+00 
*LOADS
*RC U178:A2 4.989e-02
*END

*R_NET x\[12\] 2.275e+00
*DRIVER x_reg_12_:Q
*CELL DFFX1_RVT
*C2_R1_C1 1.138e+00 2.192e-02 1.138e+00 
*LOADS
*RC U184:A2 4.989e-02
*END

*R_NET x\[11\] 2.275e+00
*DRIVER x_reg_11_:Q
*CELL DFFX1_RVT
*C2_R1_C1 1.138e+00 2.192e-02 1.138e+00 
*LOADS
*RC U177:A2 4.989e-02
*END

*R_NET x\[10\] 2.275e+00
*DRIVER x_reg_10_:Q
*CELL DFFX1_RVT
*C2_R1_C1 1.138e+00 2.192e-02 1.138e+00 
*LOADS
*RC U209:A2 4.989e-02
*END

*R_NET x\[9\] 2.275e+00
*DRIVER x_reg_9_:Q
*CELL DFFX1_RVT
*C2_R1_C1 1.138e+00 2.192e-02 1.138e+00 
*LOADS
*RC U176:A2 4.989e-02
*END

*R_NET x\[8\] 2.275e+00
*DRIVER x_reg_8_:Q
*CELL DFFX1_RVT
*C2_R1_C1 1.138e+00 2.192e-02 1.138e+00 
*LOADS
*RC U183:A2 4.989e-02
*END

*R_NET x\[7\] 2.275e+00
*DRIVER x_reg_7_:Q
*CELL DFFX1_RVT
*C2_R1_C1 1.138e+00 2.192e-02 1.138e+00 
*LOADS
*RC U175:A2 4.989e-02
*END

*R_NET x\[6\] 2.275e+00
*DRIVER x_reg_6_:Q
*CELL DFFX1_RVT
*C2_R1_C1 1.138e+00 2.192e-02 1.138e+00 
*LOADS
*RC U182:A2 4.989e-02
*END

*R_NET x\[5\] 2.275e+00
*DRIVER x_reg_5_:Q
*CELL DFFX1_RVT
*C2_R1_C1 1.138e+00 2.192e-02 1.138e+00 
*LOADS
*RC U174:A2 4.989e-02
*END

*R_NET x\[4\] 2.275e+00
*DRIVER x_reg_4_:Q
*CELL DFFX1_RVT
*C2_R1_C1 1.138e+00 2.192e-02 1.138e+00 
*LOADS
*RC U181:A2 4.989e-02
*END

*R_NET x\[3\] 2.275e+00
*DRIVER x_reg_3_:Q
*CELL DFFX1_RVT
*C2_R1_C1 1.138e+00 2.192e-02 1.138e+00 
*LOADS
*RC U173:A2 4.989e-02
*END

*R_NET x\[2\] 2.275e+00
*DRIVER x_reg_2_:Q
*CELL DFFX1_RVT
*C2_R1_C1 1.138e+00 2.192e-02 1.138e+00 
*LOADS
*RC U180:A2 4.989e-02
*END

*R_NET q\[15\] 7.861e+00
*DRIVER q_reg_15_:Q
*CELL DFFX1_RVT
*C2_R1_C1 3.931e+00 2.192e-02 3.931e+00 
*LOADS
*RC U147:B 1.724e-01
*END

*R_NET q\[14\] 9.396e+00
*DRIVER q_reg_14_:Q
*CELL DFFX1_RVT
*C2_R1_C1 4.698e+00 1.158e-01 4.698e+00 
*LOADS
*RC U146:A3 6.707e-02
*RC U146:A1 7.001e-02
*RC U194:A2 6.589e-02
*RC U253:A2 6.898e-02
*END

*R_NET q\[13\] 1.280e+01
*DRIVER q_reg_13_:Q
*CELL DFFX1_RVT
*C2_R1_C1 6.402e+00 8.117e-02 6.402e+00 
*LOADS
*RC U195:A2 6.159e-02
*RC U254:A 2.204e-01
*RC U259:A2 6.448e-02
*END

*R_NET q\[12\] 1.280e+01
*DRIVER q_reg_12_:Q
*CELL DFFX1_RVT
*C2_R1_C1 6.402e+00 8.117e-02 6.402e+00 
*LOADS
*RC U152:A2 6.448e-02
*RC U168:A 2.204e-01
*RC U196:A2 6.159e-02
*END

*R_NET q\[11\] 1.280e+01
*DRIVER q_reg_11_:Q
*CELL DFFX1_RVT
*C2_R1_C1 6.402e+00 8.117e-02 6.402e+00 
*LOADS
*RC U197:A2 6.159e-02
*RC U227:A 2.204e-01
*RC U270:A2 6.448e-02
*END

*R_NET q\[10\] 1.280e+01
*DRIVER q_reg_10_:Q
*CELL DFFX1_RVT
*C2_R1_C1 6.402e+00 8.117e-02 6.402e+00 
*LOADS
*RC U198:A2 6.159e-02
*RC U246:A 2.204e-01
*RC U252:A2 6.448e-02
*END

*R_NET q\[9\] 1.280e+01
*DRIVER q_reg_9_:Q
*CELL DFFX1_RVT
*C2_R1_C1 6.402e+00 8.117e-02 6.402e+00 
*LOADS
*RC U199:A2 6.159e-02
*RC U224:A 2.204e-01
*RC U271:A2 6.448e-02
*END

*R_NET q\[8\] 1.280e+01
*DRIVER q_reg_8_:Q
*CELL DFFX1_RVT
*C2_R1_C1 6.402e+00 8.117e-02 6.402e+00 
*LOADS
*RC U200:A2 6.159e-02
*RC U243:A 2.204e-01
*RC U269:A2 6.448e-02
*END

*R_NET q\[7\] 1.280e+01
*DRIVER q_reg_7_:Q
*CELL DFFX1_RVT
*C2_R1_C1 6.402e+00 8.117e-02 6.402e+00 
*LOADS
*RC U201:A2 6.159e-02
*RC U221:A 2.204e-01
*RC U268:A2 6.448e-02
*END

*R_NET q\[6\] 1.280e+01
*DRIVER q_reg_6_:Q
*CELL DFFX1_RVT
*C2_R1_C1 6.402e+00 8.117e-02 6.402e+00 
*LOADS
*RC U202:A2 6.159e-02
*RC U240:A 2.204e-01
*RC U267:A2 6.448e-02
*END

*R_NET q\[5\] 1.280e+01
*DRIVER q_reg_5_:Q
*CELL DFFX1_RVT
*C2_R1_C1 6.402e+00 8.117e-02 6.402e+00 
*LOADS
*RC U203:A2 6.159e-02
*RC U218:A 2.204e-01
*RC U266:A2 6.448e-02
*END

*R_NET q\[4\] 1.280e+01
*DRIVER q_reg_4_:Q
*CELL DFFX1_RVT
*C2_R1_C1 6.402e+00 8.117e-02 6.402e+00 
*LOADS
*RC U204:A2 6.159e-02
*RC U237:A 2.204e-01
*RC U265:A2 6.448e-02
*END

*R_NET q\[3\] 1.280e+01
*DRIVER q_reg_3_:Q
*CELL DFFX1_RVT
*C2_R1_C1 6.402e+00 8.117e-02 6.402e+00 
*LOADS
*RC U205:A2 6.159e-02
*RC U215:A 2.204e-01
*RC U264:A2 6.448e-02
*END

*R_NET q\[2\] 1.280e+01
*DRIVER q_reg_2_:Q
*CELL DFFX1_RVT
*C2_R1_C1 6.402e+00 8.117e-02 6.402e+00 
*LOADS
*RC U206:A2 6.159e-02
*RC U234:A 2.204e-01
*RC U263:A2 6.448e-02
*END

*R_NET q\[1\] 1.280e+01
*DRIVER q_reg_1_:Q
*CELL DFFX1_RVT
*C2_R1_C1 6.402e+00 8.117e-02 6.402e+00 
*LOADS
*RC U207:A2 6.159e-02
*RC U212:A 2.204e-01
*RC U262:A2 6.448e-02
*END

*R_NET q\[0\] 1.280e+01
*DRIVER q_reg_0_:Q
*CELL DFFX1_RVT
*C2_R1_C1 6.402e+00 8.117e-02 6.402e+00 
*LOADS
*RC U208:A2 6.159e-02
*RC U231:A 2.204e-01
*RC U261:A2 6.448e-02
*END

*R_NET ac\[17\] 8.143e+00
*DRIVER ac_reg_17_:Q
*CELL DFFX1_RVT
*C2_R1_C1 4.072e+00 2.192e-02 4.072e+00 
*LOADS
*RC U147:A 1.785e-01
*END

*R_NET ac\[15\] 5.020e+00
*DRIVER ac_reg_15_:Q
*CELL DFFX1_RVT
*C2_R1_C1 2.510e+00 5.002e-02 2.510e+00 
*LOADS
*RC U256:A2 5.692e-02
*RC U286:A6 6.862e-02
*END

*R_NET ac\[14\] 5.020e+00
*DRIVER ac_reg_14_:Q
*CELL DFFX1_RVT
*C2_R1_C1 2.510e+00 5.002e-02 2.510e+00 
*LOADS
*RC U170:A2 5.692e-02
*RC U285:A6 6.862e-02
*END

*R_NET ac\[13\] 5.020e+00
*DRIVER ac_reg_13_:Q
*CELL DFFX1_RVT
*C2_R1_C1 2.510e+00 5.002e-02 2.510e+00 
*LOADS
*RC U229:A2 5.692e-02
*RC U284:A6 6.862e-02
*END

*R_NET ac\[12\] 5.020e+00
*DRIVER ac_reg_12_:Q
*CELL DFFX1_RVT
*C2_R1_C1 2.510e+00 5.002e-02 2.510e+00 
*LOADS
*RC U248:A2 5.692e-02
*RC U283:A6 6.862e-02
*END

*R_NET ac\[11\] 5.020e+00
*DRIVER ac_reg_11_:Q
*CELL DFFX1_RVT
*C2_R1_C1 2.510e+00 5.002e-02 2.510e+00 
*LOADS
*RC U226:A2 5.692e-02
*RC U282:A6 6.862e-02
*END

*R_NET ac\[10\] 5.020e+00
*DRIVER ac_reg_10_:Q
*CELL DFFX1_RVT
*C2_R1_C1 2.510e+00 5.002e-02 2.510e+00 
*LOADS
*RC U245:A2 5.692e-02
*RC U281:A6 6.862e-02
*END

*R_NET ac\[9\] 5.020e+00
*DRIVER ac_reg_9_:Q
*CELL DFFX1_RVT
*C2_R1_C1 2.510e+00 5.002e-02 2.510e+00 
*LOADS
*RC U223:A2 5.692e-02
*RC U280:A6 6.862e-02
*END

*R_NET ac\[8\] 5.020e+00
*DRIVER ac_reg_8_:Q
*CELL DFFX1_RVT
*C2_R1_C1 2.510e+00 5.002e-02 2.510e+00 
*LOADS
*RC U242:A2 5.692e-02
*RC U279:A6 6.862e-02
*END

*R_NET ac\[7\] 5.020e+00
*DRIVER ac_reg_7_:Q
*CELL DFFX1_RVT
*C2_R1_C1 2.510e+00 5.002e-02 2.510e+00 
*LOADS
*RC U220:A2 5.692e-02
*RC U278:A6 6.862e-02
*END

*R_NET ac\[6\] 5.020e+00
*DRIVER ac_reg_6_:Q
*CELL DFFX1_RVT
*C2_R1_C1 2.510e+00 5.002e-02 2.510e+00 
*LOADS
*RC U239:A2 5.692e-02
*RC U277:A6 6.862e-02
*END

*R_NET ac\[5\] 5.020e+00
*DRIVER ac_reg_5_:Q
*CELL DFFX1_RVT
*C2_R1_C1 2.510e+00 5.002e-02 2.510e+00 
*LOADS
*RC U217:A2 5.692e-02
*RC U276:A6 6.862e-02
*END

*R_NET ac\[4\] 5.020e+00
*DRIVER ac_reg_4_:Q
*CELL DFFX1_RVT
*C2_R1_C1 2.510e+00 5.002e-02 2.510e+00 
*LOADS
*RC U236:A2 5.692e-02
*RC U275:A6 6.862e-02
*END

*R_NET ac\[3\] 5.020e+00
*DRIVER ac_reg_3_:Q
*CELL DFFX1_RVT
*C2_R1_C1 2.510e+00 5.002e-02 2.510e+00 
*LOADS
*RC U214:A2 5.692e-02
*RC U274:A6 6.862e-02
*END

*R_NET ac\[2\] 5.020e+00
*DRIVER ac_reg_2_:Q
*CELL DFFX1_RVT
*C2_R1_C1 2.510e+00 5.002e-02 2.510e+00 
*LOADS
*RC U233:A2 5.692e-02
*RC U273:A6 6.862e-02
*END

*R_NET ac\[1\] 1.078e+01
*DRIVER ac_reg_1_:Q
*CELL DFFX1_RVT
*C2_R1_C1 5.390e+00 1.158e-01 5.390e+00 
*LOADS
*RC U145:A2 9.516e-02
*RC U210:A1 7.148e-02
*RC U211:A1 6.595e-02
*RC U272:A6 7.944e-02
*END

*R_NET ac\[0\] 9.338e+00
*DRIVER ac_reg_0_:Q
*CELL DFFX1_RVT
*C2_R1_C1 4.669e+00 1.158e-01 4.669e+00 
*LOADS
*RC U145:A1 7.951e-02
*RC U193:A2 6.240e-02
*RC U210:A2 6.240e-02
*RC U230:A1 6.595e-02
*END

*R_NET it\[3\] 4.663e+00
*DRIVER it_reg_3_:Q
*CELL DFFX1_RVT
*C2_R1_C1 2.331e+00 5.002e-02 2.331e+00 
*LOADS
*RC U150:A2 6.422e-02
*RC U156:A1 5.239e-02
*END

*R_NET it\[2\] 5.627e+00
*DRIVER it_reg_2_:Q
*CELL DFFX1_RVT
*C2_R1_C1 2.813e+00 5.002e-02 2.813e+00 
*LOADS
*RC U139:A1 7.110e-02
*RC U153:A1 6.962e-02
*END

*R_NET it\[1\] 1.058e+01
*DRIVER it_reg_1_:Q
*CELL DFFX1_RVT
*C2_R1_C1 5.288e+00 1.158e-01 5.288e+00 
*LOADS
*RC U131:A2 9.409e-02
*RC U150:A1 8.740e-02
*RC U153:A3 6.602e-02
*RC U158:A2 5.856e-02
*END

*R_NET it\[0\] 7.705e+00
*DRIVER it_reg_0_:Q
*CELL DFFX1_RVT
*C2_R1_C1 3.853e+00 8.117e-02 3.853e+00 
*LOADS
*RC U131:A1 7.693e-02
*RC U153:A2 6.594e-02
*RC U158:A1 6.561e-02
*END

*R_NET it_next\[3\] 2.382e+00
*DRIVER it_next_reg_3_:Q
*CELL LATCHX1_RVT
*C2_R1_C1 1.191e+00 2.192e-02 1.191e+00 
*LOADS
*RC U166:A2 5.223e-02
*END

*R_NET it_next\[2\] 2.382e+00
*DRIVER it_next_reg_2_:Q
*CELL LATCHX1_RVT
*C2_R1_C1 1.191e+00 2.192e-02 1.191e+00 
*LOADS
*RC U249:A2 5.223e-02
*END

*R_NET it_next\[1\] 2.382e+00
*DRIVER it_next_reg_1_:Q
*CELL LATCHX1_RVT
*C2_R1_C1 1.191e+00 2.192e-02 1.191e+00 
*LOADS
*RC U257:A2 5.223e-02
*END

*R_NET it_next\[0\] 2.382e+00
*DRIVER it_next_reg_0_:Q
*CELL LATCHX1_RVT
*C2_R1_C1 1.191e+00 2.192e-02 1.191e+00 
*LOADS
*RC U251:A2 5.223e-02
*END

*R_NET N66 3.103e+00
*DRIVER U157:Y
*CELL AND2X1_RVT
*C2_R1_C1 1.551e+00 2.192e-02 1.551e+00 
*LOADS
*RC it_next_reg_0_:D 6.802e-02
*END

*R_NET N67 3.103e+00
*DRIVER U128:Y
*CELL AND3X1_RVT
*C2_R1_C1 1.551e+00 2.192e-02 1.551e+00 
*LOADS
*RC it_next_reg_1_:D 6.802e-02
*END

*R_NET N68 3.103e+00
*DRIVER U134:Y
*CELL AND3X1_RVT
*C2_R1_C1 1.551e+00 2.192e-02 1.551e+00 
*LOADS
*RC it_next_reg_2_:D 6.802e-02
*END

*R_NET N69 3.103e+00
*DRIVER U156:Y
*CELL OA221X1_RVT
*C2_R1_C1 1.551e+00 2.192e-02 1.551e+00 
*LOADS
*RC it_next_reg_3_:D 6.802e-02
*END

*R_NET N107 2.592e+00
*DRIVER U179:Y
*CELL AND2X1_RVT
*C2_R1_C1 1.296e+00 2.192e-02 1.296e+00 
*LOADS
*RC x_reg_2_:D 5.683e-02
*END

*R_NET N108 2.592e+00
*DRIVER U172:Y
*CELL AND2X1_RVT
*C2_R1_C1 1.296e+00 2.192e-02 1.296e+00 
*LOADS
*RC x_reg_3_:D 5.683e-02
*END

*R_NET N109 2.592e+00
*DRIVER U180:Y
*CELL AO22X1_RVT
*C2_R1_C1 1.296e+00 2.192e-02 1.296e+00 
*LOADS
*RC x_reg_4_:D 5.683e-02
*END

*R_NET N110 2.592e+00
*DRIVER U173:Y
*CELL AO22X1_RVT
*C2_R1_C1 1.296e+00 2.192e-02 1.296e+00 
*LOADS
*RC x_reg_5_:D 5.683e-02
*END

*R_NET N111 2.592e+00
*DRIVER U181:Y
*CELL AO22X1_RVT
*C2_R1_C1 1.296e+00 2.192e-02 1.296e+00 
*LOADS
*RC x_reg_6_:D 5.683e-02
*END

*R_NET N112 2.592e+00
*DRIVER U174:Y
*CELL AO22X1_RVT
*C2_R1_C1 1.296e+00 2.192e-02 1.296e+00 
*LOADS
*RC x_reg_7_:D 5.683e-02
*END

*R_NET N113 2.592e+00
*DRIVER U182:Y
*CELL AO22X1_RVT
*C2_R1_C1 1.296e+00 2.192e-02 1.296e+00 
*LOADS
*RC x_reg_8_:D 5.683e-02
*END

*R_NET N114 2.592e+00
*DRIVER U175:Y
*CELL AO22X1_RVT
*C2_R1_C1 1.296e+00 2.192e-02 1.296e+00 
*LOADS
*RC x_reg_9_:D 5.683e-02
*END

*R_NET N115 2.592e+00
*DRIVER U183:Y
*CELL AO22X1_RVT
*C2_R1_C1 1.296e+00 2.192e-02 1.296e+00 
*LOADS
*RC x_reg_10_:D 5.683e-02
*END

*R_NET N116 2.592e+00
*DRIVER U176:Y
*CELL AO22X1_RVT
*C2_R1_C1 1.296e+00 2.192e-02 1.296e+00 
*LOADS
*RC x_reg_11_:D 5.683e-02
*END

*R_NET N117 2.592e+00
*DRIVER U209:Y
*CELL AO22X1_RVT
*C2_R1_C1 1.296e+00 2.192e-02 1.296e+00 
*LOADS
*RC x_reg_12_:D 5.683e-02
*END

*R_NET N118 2.592e+00
*DRIVER U177:Y
*CELL AO22X1_RVT
*C2_R1_C1 1.296e+00 2.192e-02 1.296e+00 
*LOADS
*RC x_reg_13_:D 5.683e-02
*END

*R_NET N119 2.592e+00
*DRIVER U184:Y
*CELL AO22X1_RVT
*C2_R1_C1 1.296e+00 2.192e-02 1.296e+00 
*LOADS
*RC x_reg_14_:D 5.683e-02
*END

*R_NET N120 2.592e+00
*DRIVER U178:Y
*CELL AO22X1_RVT
*C2_R1_C1 1.296e+00 2.192e-02 1.296e+00 
*LOADS
*RC x_reg_15_:D 5.683e-02
*END

*R_NET N122 2.592e+00
*DRIVER U261:Y
*CELL AND2X1_RVT
*C2_R1_C1 1.296e+00 2.192e-02 1.296e+00 
*LOADS
*RC q_reg_1_:D 5.683e-02
*END

*R_NET N123 2.592e+00
*DRIVER U262:Y
*CELL AND2X1_RVT
*C2_R1_C1 1.296e+00 2.192e-02 1.296e+00 
*LOADS
*RC q_reg_2_:D 5.683e-02
*END

*R_NET N124 2.592e+00
*DRIVER U263:Y
*CELL AND2X1_RVT
*C2_R1_C1 1.296e+00 2.192e-02 1.296e+00 
*LOADS
*RC q_reg_3_:D 5.683e-02
*END

*R_NET N125 2.592e+00
*DRIVER U264:Y
*CELL AND2X1_RVT
*C2_R1_C1 1.296e+00 2.192e-02 1.296e+00 
*LOADS
*RC q_reg_4_:D 5.683e-02
*END

*R_NET N126 2.592e+00
*DRIVER U265:Y
*CELL AND2X1_RVT
*C2_R1_C1 1.296e+00 2.192e-02 1.296e+00 
*LOADS
*RC q_reg_5_:D 5.683e-02
*END

*R_NET N127 2.592e+00
*DRIVER U266:Y
*CELL AND2X1_RVT
*C2_R1_C1 1.296e+00 2.192e-02 1.296e+00 
*LOADS
*RC q_reg_6_:D 5.683e-02
*END

*R_NET N128 2.592e+00
*DRIVER U267:Y
*CELL AND2X1_RVT
*C2_R1_C1 1.296e+00 2.192e-02 1.296e+00 
*LOADS
*RC q_reg_7_:D 5.683e-02
*END

*R_NET N129 2.592e+00
*DRIVER U268:Y
*CELL AND2X1_RVT
*C2_R1_C1 1.296e+00 2.192e-02 1.296e+00 
*LOADS
*RC q_reg_8_:D 5.683e-02
*END

*R_NET N130 2.592e+00
*DRIVER U269:Y
*CELL AND2X1_RVT
*C2_R1_C1 1.296e+00 2.192e-02 1.296e+00 
*LOADS
*RC q_reg_9_:D 5.683e-02
*END

*R_NET N131 2.592e+00
*DRIVER U271:Y
*CELL AND2X1_RVT
*C2_R1_C1 1.296e+00 2.192e-02 1.296e+00 
*LOADS
*RC q_reg_10_:D 5.683e-02
*END

*R_NET N132 2.592e+00
*DRIVER U252:Y
*CELL AND2X1_RVT
*C2_R1_C1 1.296e+00 2.192e-02 1.296e+00 
*LOADS
*RC q_reg_11_:D 5.683e-02
*END

*R_NET N133 2.592e+00
*DRIVER U270:Y
*CELL AND2X1_RVT
*C2_R1_C1 1.296e+00 2.192e-02 1.296e+00 
*LOADS
*RC q_reg_12_:D 5.683e-02
*END

*R_NET N134 2.592e+00
*DRIVER U152:Y
*CELL AND2X1_RVT
*C2_R1_C1 1.296e+00 2.192e-02 1.296e+00 
*LOADS
*RC q_reg_13_:D 5.683e-02
*END

*R_NET N135 2.592e+00
*DRIVER U259:Y
*CELL AND2X1_RVT
*C2_R1_C1 1.296e+00 2.192e-02 1.296e+00 
*LOADS
*RC q_reg_14_:D 5.683e-02
*END

*R_NET N136 2.592e+00
*DRIVER U253:Y
*CELL AND2X1_RVT
*C2_R1_C1 1.296e+00 2.192e-02 1.296e+00 
*LOADS
*RC q_reg_15_:D 5.683e-02
*END

*R_NET N137 2.592e+00
*DRIVER U258:Y
*CELL AO22X1_RVT
*C2_R1_C1 1.296e+00 2.192e-02 1.296e+00 
*LOADS
*RC ac_reg_0_:D 5.683e-02
*END

*R_NET N138 2.592e+00
*DRIVER U260:Y
*CELL AO22X1_RVT
*C2_R1_C1 1.296e+00 2.192e-02 1.296e+00 
*LOADS
*RC ac_reg_1_:D 5.683e-02
*END

*R_NET N139 2.592e+00
*DRIVER U230:Y
*CELL AO22X1_RVT
*C2_R1_C1 1.296e+00 2.192e-02 1.296e+00 
*LOADS
*RC ac_reg_2_:D 5.683e-02
*END

*R_NET N140 2.592e+00
*DRIVER U211:Y
*CELL AO22X1_RVT
*C2_R1_C1 1.296e+00 2.192e-02 1.296e+00 
*LOADS
*RC ac_reg_3_:D 5.683e-02
*END

*R_NET N141 2.592e+00
*DRIVER U233:Y
*CELL AO22X1_RVT
*C2_R1_C1 1.296e+00 2.192e-02 1.296e+00 
*LOADS
*RC ac_reg_4_:D 5.683e-02
*END

*R_NET N142 2.592e+00
*DRIVER U214:Y
*CELL AO22X1_RVT
*C2_R1_C1 1.296e+00 2.192e-02 1.296e+00 
*LOADS
*RC ac_reg_5_:D 5.683e-02
*END

*R_NET N143 2.592e+00
*DRIVER U236:Y
*CELL AO22X1_RVT
*C2_R1_C1 1.296e+00 2.192e-02 1.296e+00 
*LOADS
*RC ac_reg_6_:D 5.683e-02
*END

*R_NET N144 2.592e+00
*DRIVER U217:Y
*CELL AO22X1_RVT
*C2_R1_C1 1.296e+00 2.192e-02 1.296e+00 
*LOADS
*RC ac_reg_7_:D 5.683e-02
*END

*R_NET N145 2.592e+00
*DRIVER U239:Y
*CELL AO22X1_RVT
*C2_R1_C1 1.296e+00 2.192e-02 1.296e+00 
*LOADS
*RC ac_reg_8_:D 5.683e-02
*END

*R_NET N146 2.592e+00
*DRIVER U220:Y
*CELL AO22X1_RVT
*C2_R1_C1 1.296e+00 2.192e-02 1.296e+00 
*LOADS
*RC ac_reg_9_:D 5.683e-02
*END

*R_NET N147 2.592e+00
*DRIVER U242:Y
*CELL AO22X1_RVT
*C2_R1_C1 1.296e+00 2.192e-02 1.296e+00 
*LOADS
*RC ac_reg_10_:D 5.683e-02
*END

*R_NET N148 2.592e+00
*DRIVER U223:Y
*CELL AO22X1_RVT
*C2_R1_C1 1.296e+00 2.192e-02 1.296e+00 
*LOADS
*RC ac_reg_11_:D 5.683e-02
*END

*R_NET N149 2.592e+00
*DRIVER U245:Y
*CELL AO22X1_RVT
*C2_R1_C1 1.296e+00 2.192e-02 1.296e+00 
*LOADS
*RC ac_reg_12_:D 5.683e-02
*END

*R_NET N150 2.592e+00
*DRIVER U226:Y
*CELL AO22X1_RVT
*C2_R1_C1 1.296e+00 2.192e-02 1.296e+00 
*LOADS
*RC ac_reg_13_:D 5.683e-02
*END

*R_NET N151 2.592e+00
*DRIVER U248:Y
*CELL AO22X1_RVT
*C2_R1_C1 1.296e+00 2.192e-02 1.296e+00 
*LOADS
*RC ac_reg_14_:D 5.683e-02
*END

*R_NET N152 2.592e+00
*DRIVER U229:Y
*CELL AO22X1_RVT
*C2_R1_C1 1.296e+00 2.192e-02 1.296e+00 
*LOADS
*RC ac_reg_15_:D 5.683e-02
*END

*R_NET N153 2.592e+00
*DRIVER U170:Y
*CELL AO22X1_RVT
*C2_R1_C1 1.296e+00 2.192e-02 1.296e+00 
*LOADS
*RC ac_reg_16_:D 5.683e-02
*END

*R_NET N154 2.592e+00
*DRIVER U256:Y
*CELL AO22X1_RVT
*C2_R1_C1 1.296e+00 2.192e-02 1.296e+00 
*LOADS
*RC ac_reg_17_:D 5.683e-02
*END

*R_NET N155 2.592e+00
*DRIVER U251:Y
*CELL AND2X1_RVT
*C2_R1_C1 1.296e+00 2.192e-02 1.296e+00 
*LOADS
*RC it_reg_0_:D 5.683e-02
*END

*R_NET N156 2.592e+00
*DRIVER U257:Y
*CELL AND2X1_RVT
*C2_R1_C1 1.296e+00 2.192e-02 1.296e+00 
*LOADS
*RC it_reg_1_:D 5.683e-02
*END

*R_NET N157 2.592e+00
*DRIVER U249:Y
*CELL AND2X1_RVT
*C2_R1_C1 1.296e+00 2.192e-02 1.296e+00 
*LOADS
*RC it_reg_2_:D 5.683e-02
*END

*R_NET N158 2.592e+00
*DRIVER U166:Y
*CELL AND2X1_RVT
*C2_R1_C1 1.296e+00 2.192e-02 1.296e+00 
*LOADS
*RC it_reg_3_:D 5.683e-02
*END

*R_NET n57 2.592e+00
*DRIVER U187:Y
*CELL AO21X1_RVT
*C2_R1_C1 1.296e+00 2.192e-02 1.296e+00 
*LOADS
*RC valid_reg:D 5.683e-02
*END

*R_NET n59 2.592e+00
*DRIVER U195:Y
*CELL AO22X1_RVT
*C2_R1_C1 1.296e+00 2.192e-02 1.296e+00 
*LOADS
*RC root_reg_14_:D 5.683e-02
*END

*R_NET n60 2.592e+00
*DRIVER U196:Y
*CELL AO22X1_RVT
*C2_R1_C1 1.296e+00 2.192e-02 1.296e+00 
*LOADS
*RC root_reg_13_:D 5.683e-02
*END

*R_NET n61 2.592e+00
*DRIVER U197:Y
*CELL AO22X1_RVT
*C2_R1_C1 1.296e+00 2.192e-02 1.296e+00 
*LOADS
*RC root_reg_12_:D 5.683e-02
*END

*R_NET n62 2.592e+00
*DRIVER U198:Y
*CELL AO22X1_RVT
*C2_R1_C1 1.296e+00 2.192e-02 1.296e+00 
*LOADS
*RC root_reg_11_:D 5.683e-02
*END

*R_NET n63 2.592e+00
*DRIVER U199:Y
*CELL AO22X1_RVT
*C2_R1_C1 1.296e+00 2.192e-02 1.296e+00 
*LOADS
*RC root_reg_10_:D 5.683e-02
*END

*R_NET n64 2.592e+00
*DRIVER U200:Y
*CELL AO22X1_RVT
*C2_R1_C1 1.296e+00 2.192e-02 1.296e+00 
*LOADS
*RC root_reg_9_:D 5.683e-02
*END

*R_NET n65 2.592e+00
*DRIVER U201:Y
*CELL AO22X1_RVT
*C2_R1_C1 1.296e+00 2.192e-02 1.296e+00 
*LOADS
*RC root_reg_8_:D 5.683e-02
*END

*R_NET n660 2.592e+00
*DRIVER U202:Y
*CELL AO22X1_RVT
*C2_R1_C1 1.296e+00 2.192e-02 1.296e+00 
*LOADS
*RC root_reg_7_:D 5.683e-02
*END

*R_NET n670 2.592e+00
*DRIVER U203:Y
*CELL AO22X1_RVT
*C2_R1_C1 1.296e+00 2.192e-02 1.296e+00 
*LOADS
*RC root_reg_6_:D 5.683e-02
*END

*R_NET n680 2.592e+00
*DRIVER U204:Y
*CELL AO22X1_RVT
*C2_R1_C1 1.296e+00 2.192e-02 1.296e+00 
*LOADS
*RC root_reg_5_:D 5.683e-02
*END

*R_NET n690 2.592e+00
*DRIVER U205:Y
*CELL AO22X1_RVT
*C2_R1_C1 1.296e+00 2.192e-02 1.296e+00 
*LOADS
*RC root_reg_4_:D 5.683e-02
*END

*R_NET n70 2.592e+00
*DRIVER U206:Y
*CELL AO22X1_RVT
*C2_R1_C1 1.296e+00 2.192e-02 1.296e+00 
*LOADS
*RC root_reg_3_:D 5.683e-02
*END

*R_NET n71 2.592e+00
*DRIVER U207:Y
*CELL AO22X1_RVT
*C2_R1_C1 1.296e+00 2.192e-02 1.296e+00 
*LOADS
*RC root_reg_2_:D 5.683e-02
*END
