*SPEF "IEEE 1481-1999"
*DESIGN "qdiv"
*DATE "Thu Dec  5 16:56:16 2024"
*VENDOR "SYNOPSYS INC"
*PROGRAM "Synopsys Design Compiler cmos"
*VERSION "V-2023.12-SP5"
*DESIGN_FLOW "SYNTHESIS"
*DIVIDER /
*DELIMITER :
*BUS_DELIMITER []
*T_UNIT 1.0 NS
*C_UNIT 0.0010 PF
*R_UNIT 1000.0 KOHM
*L_UNIT 1.0 HENRY

*PORTS

i_dividend\[15\] I *L 0.000e+00 *S 3.529e-03 2.579e-02 *D NBUFFX4_RVT 
i_dividend\[14\] I *L 0.000e+00 *S 1.799e-03 4.229e-02 *D NBUFFX4_RVT 
i_dividend\[13\] I *L 0.000e+00 *S 2.152e-03 3.864e-02 *D NBUFFX4_RVT 
i_dividend\[12\] I *L 0.000e+00 *S 1.799e-03 4.229e-02 *D NBUFFX4_RVT 
i_dividend\[11\] I *L 0.000e+00 *S 2.152e-03 3.864e-02 *D NBUFFX4_RVT 
i_dividend\[10\] I *L 0.000e+00 *S 1.799e-03 4.229e-02 *D NBUFFX4_RVT 
i_dividend\[9\] I *L 0.000e+00 *S 2.152e-03 3.864e-02 *D NBUFFX4_RVT 
i_dividend\[8\] I *L 0.000e+00 *S 1.799e-03 4.229e-02 *D NBUFFX4_RVT 
i_dividend\[7\] I *L 0.000e+00 *S 2.152e-03 3.864e-02 *D NBUFFX4_RVT 
i_dividend\[6\] I *L 0.000e+00 *S 1.799e-03 4.229e-02 *D NBUFFX4_RVT 
i_dividend\[5\] I *L 0.000e+00 *S 2.152e-03 3.864e-02 *D NBUFFX4_RVT 
i_dividend\[4\] I *L 0.000e+00 *S 1.799e-03 4.229e-02 *D NBUFFX4_RVT 
i_dividend\[3\] I *L 0.000e+00 *S 2.152e-03 3.864e-02 *D NBUFFX4_RVT 
i_dividend\[2\] I *L 0.000e+00 *S 1.799e-03 4.229e-02 *D NBUFFX4_RVT 
i_dividend\[1\] I *L 0.000e+00 *S 2.152e-03 3.864e-02 *D NBUFFX4_RVT 
i_dividend\[0\] I *L 0.000e+00 *S 2.152e-03 3.864e-02 *D NBUFFX4_RVT 
i_divisor\[15\] I *L 0.000e+00 *S 3.384e-03 2.708e-02 *D NBUFFX4_RVT 
i_divisor\[14\] I *L 0.000e+00 *S 1.799e-03 4.229e-02 *D NBUFFX4_RVT 
i_divisor\[13\] I *L 0.000e+00 *S 2.152e-03 3.864e-02 *D NBUFFX4_RVT 
i_divisor\[12\] I *L 0.000e+00 *S 2.152e-03 3.864e-02 *D NBUFFX4_RVT 
i_divisor\[11\] I *L 0.000e+00 *S 2.152e-03 3.864e-02 *D NBUFFX4_RVT 
i_divisor\[10\] I *L 0.000e+00 *S 2.152e-03 3.864e-02 *D NBUFFX4_RVT 
i_divisor\[9\] I *L 0.000e+00 *S 2.152e-03 3.864e-02 *D NBUFFX4_RVT 
i_divisor\[8\] I *L 0.000e+00 *S 2.152e-03 3.864e-02 *D NBUFFX4_RVT 
i_divisor\[7\] I *L 0.000e+00 *S 2.152e-03 3.864e-02 *D NBUFFX4_RVT 
i_divisor\[6\] I *L 0.000e+00 *S 2.152e-03 3.864e-02 *D NBUFFX4_RVT 
i_divisor\[5\] I *L 0.000e+00 *S 2.152e-03 3.864e-02 *D NBUFFX4_RVT 
i_divisor\[4\] I *L 0.000e+00 *S 2.152e-03 3.864e-02 *D NBUFFX4_RVT 
i_divisor\[3\] I *L 0.000e+00 *S 2.152e-03 3.864e-02 *D NBUFFX4_RVT 
i_divisor\[2\] I *L 0.000e+00 *S 2.152e-03 3.864e-02 *D NBUFFX4_RVT 
i_divisor\[1\] I *L 0.000e+00 *S 2.152e-03 3.864e-02 *D NBUFFX4_RVT 
i_divisor\[0\] I *L 0.000e+00 *S 2.152e-03 3.864e-02 *D NBUFFX4_RVT 
i_start I *L 0.000e+00 *S 3.423e-03 2.673e-02 *D NBUFFX4_RVT 
i_clk I *L 0.000e+00 *S 0.000e+00 3.534e-02 *D NBUFFX4_RVT 
i_reset_n I *L 0.000e+00 *S 2.834e-03 3.197e-02 *D NBUFFX4_RVT 
i_enable I *L 0.000e+00 *S 4.934e-03 1.332e-02 *D NBUFFX4_RVT 
o_quotient_out\[15\] O *L 3.000e-01 *S 9.745e-03 1.932e-02 
o_quotient_out\[14\] O *L 3.000e-01 *S 9.745e-03 1.932e-02 
o_quotient_out\[13\] O *L 3.000e-01 *S 9.745e-03 1.932e-02 
o_quotient_out\[12\] O *L 3.000e-01 *S 9.745e-03 1.932e-02 
o_quotient_out\[11\] O *L 3.000e-01 *S 9.745e-03 1.932e-02 
o_quotient_out\[10\] O *L 3.000e-01 *S 9.745e-03 1.932e-02 
o_quotient_out\[9\] O *L 3.000e-01 *S 9.745e-03 1.932e-02 
o_quotient_out\[8\] O *L 3.000e-01 *S 9.745e-03 1.932e-02 
o_quotient_out\[7\] O *L 3.000e-01 *S 9.745e-03 1.932e-02 
o_quotient_out\[6\] O *L 3.000e-01 *S 9.745e-03 1.932e-02 
o_quotient_out\[5\] O *L 3.000e-01 *S 9.745e-03 1.932e-02 
o_quotient_out\[4\] O *L 3.000e-01 *S 9.745e-03 1.932e-02 
o_quotient_out\[3\] O *L 3.000e-01 *S 9.745e-03 1.932e-02 
o_quotient_out\[2\] O *L 3.000e-01 *S 9.745e-03 1.932e-02 
o_quotient_out\[1\] O *L 3.000e-01 *S 9.745e-03 1.932e-02 
o_quotient_out\[0\] O *L 3.000e-01 *S 9.745e-03 1.932e-02 
o_complete O *L 3.000e-01 *S 1.442e-02 1.665e-02 
o_overflow O *L 3.000e-01 *S 9.536e-03 1.887e-02 

*R_NET i_dividend\[15\] 4.590e+00
*DRIVER i_dividend\[15\]
*CELL NBUFFX4_RVT
*C2_R1_C1 2.295e+00 2.192e-02 2.295e+00 
*LOADS
*RC U244:A2 1.006e-01
*END

*R_NET i_dividend\[14\] 2.275e+00
*DRIVER i_dividend\[14\]
*CELL NBUFFX4_RVT
*C2_R1_C1 1.138e+00 2.192e-02 1.138e+00 
*LOADS
*RC U371:A2 4.989e-02
*END

*R_NET i_dividend\[13\] 2.743e+00
*DRIVER i_dividend\[13\]
*CELL NBUFFX4_RVT
*C2_R1_C1 1.372e+00 2.192e-02 1.372e+00 
*LOADS
*RC U573:A6 6.014e-02
*END

*R_NET i_dividend\[12\] 2.275e+00
*DRIVER i_dividend\[12\]
*CELL NBUFFX4_RVT
*C2_R1_C1 1.138e+00 2.192e-02 1.138e+00 
*LOADS
*RC U494:A2 4.989e-02
*END

*R_NET i_dividend\[11\] 2.743e+00
*DRIVER i_dividend\[11\]
*CELL NBUFFX4_RVT
*C2_R1_C1 1.372e+00 2.192e-02 1.372e+00 
*LOADS
*RC U570:A6 6.014e-02
*END

*R_NET i_dividend\[10\] 2.275e+00
*DRIVER i_dividend\[10\]
*CELL NBUFFX4_RVT
*C2_R1_C1 1.138e+00 2.192e-02 1.138e+00 
*LOADS
*RC U498:A2 4.989e-02
*END

*R_NET i_dividend\[9\] 2.743e+00
*DRIVER i_dividend\[9\]
*CELL NBUFFX4_RVT
*C2_R1_C1 1.372e+00 2.192e-02 1.372e+00 
*LOADS
*RC U567:A6 6.014e-02
*END

*R_NET i_dividend\[8\] 2.275e+00
*DRIVER i_dividend\[8\]
*CELL NBUFFX4_RVT
*C2_R1_C1 1.138e+00 2.192e-02 1.138e+00 
*LOADS
*RC U502:A2 4.989e-02
*END

*R_NET i_dividend\[7\] 2.743e+00
*DRIVER i_dividend\[7\]
*CELL NBUFFX4_RVT
*C2_R1_C1 1.372e+00 2.192e-02 1.372e+00 
*LOADS
*RC U565:A6 6.014e-02
*END

*R_NET i_dividend\[6\] 2.275e+00
*DRIVER i_dividend\[6\]
*CELL NBUFFX4_RVT
*C2_R1_C1 1.138e+00 2.192e-02 1.138e+00 
*LOADS
*RC U506:A2 4.989e-02
*END

*R_NET i_dividend\[5\] 2.743e+00
*DRIVER i_dividend\[5\]
*CELL NBUFFX4_RVT
*C2_R1_C1 1.372e+00 2.192e-02 1.372e+00 
*LOADS
*RC U562:A6 6.014e-02
*END

*R_NET i_dividend\[4\] 2.275e+00
*DRIVER i_dividend\[4\]
*CELL NBUFFX4_RVT
*C2_R1_C1 1.138e+00 2.192e-02 1.138e+00 
*LOADS
*RC U510:A2 4.989e-02
*END

*R_NET i_dividend\[3\] 2.743e+00
*DRIVER i_dividend\[3\]
*CELL NBUFFX4_RVT
*C2_R1_C1 1.372e+00 2.192e-02 1.372e+00 
*LOADS
*RC U559:A6 6.014e-02
*END

*R_NET i_dividend\[2\] 2.275e+00
*DRIVER i_dividend\[2\]
*CELL NBUFFX4_RVT
*C2_R1_C1 1.138e+00 2.192e-02 1.138e+00 
*LOADS
*RC U514:A2 4.989e-02
*END

*R_NET i_dividend\[1\] 2.743e+00
*DRIVER i_dividend\[1\]
*CELL NBUFFX4_RVT
*C2_R1_C1 1.372e+00 2.192e-02 1.372e+00 
*LOADS
*RC U556:A6 6.014e-02
*END

*R_NET i_dividend\[0\] 2.743e+00
*DRIVER i_dividend\[0\]
*CELL NBUFFX4_RVT
*C2_R1_C1 1.372e+00 2.192e-02 1.372e+00 
*LOADS
*RC U553:A6 6.014e-02
*END

*R_NET i_divisor\[15\] 4.419e+00
*DRIVER i_divisor\[15\]
*CELL NBUFFX4_RVT
*C2_R1_C1 2.210e+00 2.192e-02 2.210e+00 
*LOADS
*RC U244:A1 9.689e-02
*END

*R_NET i_divisor\[14\] 2.275e+00
*DRIVER i_divisor\[14\]
*CELL NBUFFX4_RVT
*C2_R1_C1 1.138e+00 2.192e-02 1.138e+00 
*LOADS
*RC U531:A2 4.989e-02
*END

*R_NET i_divisor\[13\] 2.743e+00
*DRIVER i_divisor\[13\]
*CELL NBUFFX4_RVT
*C2_R1_C1 1.372e+00 2.192e-02 1.372e+00 
*LOADS
*RC U581:A6 6.014e-02
*END

*R_NET i_divisor\[12\] 2.743e+00
*DRIVER i_divisor\[12\]
*CELL NBUFFX4_RVT
*C2_R1_C1 1.372e+00 2.192e-02 1.372e+00 
*LOADS
*RC U582:A6 6.014e-02
*END

*R_NET i_divisor\[11\] 2.743e+00
*DRIVER i_divisor\[11\]
*CELL NBUFFX4_RVT
*C2_R1_C1 1.372e+00 2.192e-02 1.372e+00 
*LOADS
*RC U583:A6 6.014e-02
*END

*R_NET i_divisor\[10\] 2.743e+00
*DRIVER i_divisor\[10\]
*CELL NBUFFX4_RVT
*C2_R1_C1 1.372e+00 2.192e-02 1.372e+00 
*LOADS
*RC U584:A6 6.014e-02
*END

*R_NET i_divisor\[9\] 2.743e+00
*DRIVER i_divisor\[9\]
*CELL NBUFFX4_RVT
*C2_R1_C1 1.372e+00 2.192e-02 1.372e+00 
*LOADS
*RC U585:A6 6.014e-02
*END

*R_NET i_divisor\[8\] 2.743e+00
*DRIVER i_divisor\[8\]
*CELL NBUFFX4_RVT
*C2_R1_C1 1.372e+00 2.192e-02 1.372e+00 
*LOADS
*RC U586:A6 6.014e-02
*END

*R_NET i_divisor\[7\] 2.743e+00
*DRIVER i_divisor\[7\]
*CELL NBUFFX4_RVT
*C2_R1_C1 1.372e+00 2.192e-02 1.372e+00 
*LOADS
*RC U587:A6 6.014e-02
*END

*R_NET i_divisor\[6\] 2.743e+00
*DRIVER i_divisor\[6\]
*CELL NBUFFX4_RVT
*C2_R1_C1 1.372e+00 2.192e-02 1.372e+00 
*LOADS
*RC U588:A6 6.014e-02
*END

*R_NET i_divisor\[5\] 2.743e+00
*DRIVER i_divisor\[5\]
*CELL NBUFFX4_RVT
*C2_R1_C1 1.372e+00 2.192e-02 1.372e+00 
*LOADS
*RC U589:A6 6.014e-02
*END

*R_NET i_divisor\[4\] 2.743e+00
*DRIVER i_divisor\[4\]
*CELL NBUFFX4_RVT
*C2_R1_C1 1.372e+00 2.192e-02 1.372e+00 
*LOADS
*RC U590:A6 6.014e-02
*END

*R_NET i_divisor\[3\] 2.743e+00
*DRIVER i_divisor\[3\]
*CELL NBUFFX4_RVT
*C2_R1_C1 1.372e+00 2.192e-02 1.372e+00 
*LOADS
*RC U591:A6 6.014e-02
*END

*R_NET i_divisor\[2\] 2.743e+00
*DRIVER i_divisor\[2\]
*CELL NBUFFX4_RVT
*C2_R1_C1 1.372e+00 2.192e-02 1.372e+00 
*LOADS
*RC U592:A6 6.014e-02
*END

*R_NET i_divisor\[1\] 2.743e+00
*DRIVER i_divisor\[1\]
*CELL NBUFFX4_RVT
*C2_R1_C1 1.372e+00 2.192e-02 1.372e+00 
*LOADS
*RC U593:A6 6.014e-02
*END

*R_NET i_divisor\[0\] 2.743e+00
*DRIVER i_divisor\[0\]
*CELL NBUFFX4_RVT
*C2_R1_C1 1.372e+00 2.192e-02 1.372e+00 
*LOADS
*RC U594:A6 6.014e-02
*END

*R_NET i_start 4.416e+00
*DRIVER i_start
*CELL NBUFFX4_RVT
*C2_R1_C1 2.208e+00 5.002e-02 2.208e+00 
*LOADS
*RC U284:A2 6.268e-02
*RC U285:A3 4.776e-02
*END

*R_NET i_clk 5.170e+01
*DRIVER i_clk
*CELL NBUFFX4_RVT
*C2_R1_C1 2.585e+01 9.411e-01 2.585e+01 
*LOADS
*RC reg_working_quotient_reg_10_:CLK 1.920e-01
*RC reg_working_quotient_reg_34_:CLK 1.920e-01
*RC reg_working_quotient_reg_6_:CLK 1.920e-01
*RC reg_working_divisor_reg_18_:CLK 1.920e-01
*RC reg_count_reg_5_:CLK 1.920e-01
*RC reg_working_divisor_reg_26_:CLK 1.920e-01
*RC reg_working_divisor_reg_14_:CLK 1.920e-01
*RC reg_working_divisor_reg_30_:CLK 1.920e-01
*RC U268:A 1.614e-01
*RC reg_count_reg_2_:CLK 1.920e-01
*RC reg_quotient_reg_5_:CLK 1.920e-01
*RC reg_working_dividend_reg_15_:CLK 1.920e-01
*RC reg_working_divisor_reg_34_:CLK 1.920e-01
*RC reg_working_dividend_reg_3_:CLK 1.920e-01
*RC reg_quotient_reg_9_:CLK 1.920e-01
*RC reg_count_reg_9_:CLK 1.920e-01
*END

*R_NET i_reset_n 3.699e+00
*DRIVER i_reset_n
*CELL NBUFFX4_RVT
*C2_R1_C1 1.849e+00 2.192e-02 1.849e+00 
*LOADS
*RC U280:A 8.109e-02
*END

*R_NET i_enable 6.535e+00
*DRIVER i_enable
*CELL NBUFFX4_RVT
*C2_R1_C1 3.267e+00 8.117e-02 3.267e+00 
*LOADS
*RC U284:A3 5.572e-02
*RC U285:A2 5.547e-02
*RC U332:A1 6.561e-02
*END

*R_NET o_quotient_out\[15\] 2.884e+00
*DRIVER reg_sign_reg:Q
*CELL DFFARX1_RVT
*C2_R1_C1 1.442e+00 5.002e-02 1.442e+00 
*LOADS
*RC U425:A4 6.450e-02
*RC o_quotient_out\[15\] 7.627e-03
*END

*R_NET o_quotient_out\[14\] 2.884e+00
*DRIVER reg_quotient_reg_14_:Q
*CELL DFFARX1_RVT
*C2_R1_C1 1.442e+00 5.002e-02 1.442e+00 
*LOADS
*RC U476:A4 6.450e-02
*RC o_quotient_out\[14\] 7.627e-03
*END

*R_NET o_quotient_out\[13\] 2.884e+00
*DRIVER reg_quotient_reg_13_:Q
*CELL DFFARX1_RVT
*C2_R1_C1 1.442e+00 5.002e-02 1.442e+00 
*LOADS
*RC U477:A4 6.450e-02
*RC o_quotient_out\[13\] 7.627e-03
*END

*R_NET o_quotient_out\[12\] 2.884e+00
*DRIVER reg_quotient_reg_12_:Q
*CELL DFFARX1_RVT
*C2_R1_C1 1.442e+00 5.002e-02 1.442e+00 
*LOADS
*RC U478:A4 6.450e-02
*RC o_quotient_out\[12\] 7.627e-03
*END

*R_NET o_quotient_out\[11\] 2.884e+00
*DRIVER reg_quotient_reg_11_:Q
*CELL DFFARX1_RVT
*C2_R1_C1 1.442e+00 5.002e-02 1.442e+00 
*LOADS
*RC U479:A4 6.450e-02
*RC o_quotient_out\[11\] 7.627e-03
*END

*R_NET o_quotient_out\[10\] 2.884e+00
*DRIVER reg_quotient_reg_10_:Q
*CELL DFFARX1_RVT
*C2_R1_C1 1.442e+00 5.002e-02 1.442e+00 
*LOADS
*RC U480:A4 6.450e-02
*RC o_quotient_out\[10\] 7.627e-03
*END

*R_NET o_quotient_out\[9\] 2.884e+00
*DRIVER reg_quotient_reg_9_:Q
*CELL DFFARX1_RVT
*C2_R1_C1 1.442e+00 5.002e-02 1.442e+00 
*LOADS
*RC U481:A4 6.450e-02
*RC o_quotient_out\[9\] 7.627e-03
*END

*R_NET o_quotient_out\[8\] 2.884e+00
*DRIVER reg_quotient_reg_8_:Q
*CELL DFFARX1_RVT
*C2_R1_C1 1.442e+00 5.002e-02 1.442e+00 
*LOADS
*RC U482:A4 6.450e-02
*RC o_quotient_out\[8\] 7.627e-03
*END

*R_NET o_quotient_out\[7\] 2.884e+00
*DRIVER reg_quotient_reg_7_:Q
*CELL DFFARX1_RVT
*C2_R1_C1 1.442e+00 5.002e-02 1.442e+00 
*LOADS
*RC U483:A4 6.450e-02
*RC o_quotient_out\[7\] 7.627e-03
*END

*R_NET o_quotient_out\[6\] 2.884e+00
*DRIVER reg_quotient_reg_6_:Q
*CELL DFFARX1_RVT
*C2_R1_C1 1.442e+00 5.002e-02 1.442e+00 
*LOADS
*RC U484:A4 6.450e-02
*RC o_quotient_out\[6\] 7.627e-03
*END

*R_NET o_quotient_out\[5\] 2.884e+00
*DRIVER reg_quotient_reg_5_:Q
*CELL DFFARX1_RVT
*C2_R1_C1 1.442e+00 5.002e-02 1.442e+00 
*LOADS
*RC U486:A4 6.450e-02
*RC o_quotient_out\[5\] 7.627e-03
*END

*R_NET o_quotient_out\[4\] 2.884e+00
*DRIVER reg_quotient_reg_4_:Q
*CELL DFFARX1_RVT
*C2_R1_C1 1.442e+00 5.002e-02 1.442e+00 
*LOADS
*RC U487:A4 6.450e-02
*RC o_quotient_out\[4\] 7.627e-03
*END

*R_NET o_quotient_out\[3\] 2.884e+00
*DRIVER reg_quotient_reg_3_:Q
*CELL DFFARX1_RVT
*C2_R1_C1 1.442e+00 5.002e-02 1.442e+00 
*LOADS
*RC U488:A4 6.450e-02
*RC o_quotient_out\[3\] 7.627e-03
*END

*R_NET o_quotient_out\[2\] 2.884e+00
*DRIVER reg_quotient_reg_2_:Q
*CELL DFFARX1_RVT
*C2_R1_C1 1.442e+00 5.002e-02 1.442e+00 
*LOADS
*RC U489:A4 6.450e-02
*RC o_quotient_out\[2\] 7.627e-03
*END

*R_NET o_quotient_out\[1\] 2.884e+00
*DRIVER reg_quotient_reg_1_:Q
*CELL DFFARX1_RVT
*C2_R1_C1 1.442e+00 5.002e-02 1.442e+00 
*LOADS
*RC U490:A4 6.450e-02
*RC o_quotient_out\[1\] 7.627e-03
*END

*R_NET o_quotient_out\[0\] 2.884e+00
*DRIVER reg_quotient_reg_0_:Q
*CELL DFFARX1_RVT
*C2_R1_C1 1.442e+00 5.002e-02 1.442e+00 
*LOADS
*RC U491:A4 6.450e-02
*RC o_quotient_out\[0\] 7.627e-03
*END

*R_NET o_complete 5.123e+00
*DRIVER reg_done_reg:Q
*CELL DFFASX1_RVT
*C2_R1_C1 2.562e+00 8.117e-02 2.562e+00 
*LOADS
*RC U285:A1 6.555e-02
*RC U485:A1 6.481e-02
*RC o_complete 8.262e-03
*END

*R_NET o_overflow 2.820e+00
*DRIVER reg_overflow_reg:Q
*CELL DFFARX1_RVT
*C2_R1_C1 1.410e+00 5.002e-02 1.410e+00 
*LOADS
*RC U424:A3 6.290e-02
*RC o_overflow 7.627e-03
*END

*R_NET reg_working_divisor\[35\] 7.489e+00
*DRIVER reg_working_divisor_reg_35_:Q
*CELL DFFARX1_RVT
*C2_R1_C1 3.745e+00 8.117e-02 3.745e+00 
*LOADS
*RC U366:A2 6.567e-02
*RC U531:A3 6.806e-02
*RC U581:A4 6.890e-02
*END

*R_NET reg_working_divisor\[34\] 7.403e+00
*DRIVER reg_working_divisor_reg_34_:Q
*CELL DFFARX1_RVT
*C2_R1_C1 3.701e+00 8.117e-02 3.701e+00 
*LOADS
*RC U364:A2 6.567e-02
*RC U581:A2 6.572e-02
*RC U582:A4 6.890e-02
*END

*R_NET reg_working_divisor\[33\] 7.882e+00
*DRIVER reg_working_divisor_reg_33_:Q
*CELL DFFARX1_RVT
*C2_R1_C1 3.941e+00 8.117e-02 3.941e+00 
*LOADS
*RC U364:A4 7.864e-02
*RC U582:A2 6.572e-02
*RC U583:A4 6.890e-02
*END

*R_NET reg_working_divisor\[32\] 7.425e+00
*DRIVER reg_working_divisor_reg_32_:Q
*CELL DFFARX1_RVT
*C2_R1_C1 3.712e+00 8.117e-02 3.712e+00 
*LOADS
*RC U364:A1 6.626e-02
*RC U583:A2 6.572e-02
*RC U584:A4 6.890e-02
*END

*R_NET reg_working_divisor\[31\] 7.899e+00
*DRIVER reg_working_divisor_reg_31_:Q
*CELL DFFARX1_RVT
*C2_R1_C1 3.949e+00 8.117e-02 3.949e+00 
*LOADS
*RC U362:A3 7.908e-02
*RC U584:A2 6.572e-02
*RC U585:A4 6.890e-02
*END

*R_NET reg_working_divisor\[30\] 7.425e+00
*DRIVER reg_working_divisor_reg_30_:Q
*CELL DFFARX1_RVT
*C2_R1_C1 3.712e+00 8.117e-02 3.712e+00 
*LOADS
*RC U363:A1 6.626e-02
*RC U585:A2 6.572e-02
*RC U586:A4 6.890e-02
*END

*R_NET reg_working_divisor\[29\] 7.415e+00
*DRIVER reg_working_divisor_reg_29_:Q
*CELL DFFARX1_RVT
*C2_R1_C1 3.707e+00 8.117e-02 3.707e+00 
*LOADS
*RC U362:A1 6.599e-02
*RC U586:A2 6.572e-02
*RC U587:A4 6.890e-02
*END

*R_NET reg_working_divisor\[28\] 7.579e+00
*DRIVER reg_working_divisor_reg_28_:Q
*CELL DFFARX1_RVT
*C2_R1_C1 3.790e+00 8.117e-02 3.790e+00 
*LOADS
*RC U362:A2 7.045e-02
*RC U587:A2 6.572e-02
*RC U588:A4 6.890e-02
*END

*R_NET reg_working_divisor\[27\] 7.566e+00
*DRIVER reg_working_divisor_reg_27_:Q
*CELL DFFARX1_RVT
*C2_R1_C1 3.783e+00 8.117e-02 3.783e+00 
*LOADS
*RC U364:A3 7.009e-02
*RC U588:A2 6.572e-02
*RC U589:A4 6.890e-02
*END

*R_NET reg_working_divisor\[26\] 4.975e+00
*DRIVER reg_working_divisor_reg_26_:Q
*CELL DFFARX1_RVT
*C2_R1_C1 2.487e+00 5.002e-02 2.487e+00 
*LOADS
*RC U589:A2 6.074e-02
*RC U590:A4 6.368e-02
*END

*R_NET reg_working_divisor\[25\] 7.423e+00
*DRIVER reg_working_divisor_reg_25_:Q
*CELL DFFARX1_RVT
*C2_R1_C1 3.712e+00 8.117e-02 3.712e+00 
*LOADS
*RC U333:A3 6.622e-02
*RC U590:A2 6.572e-02
*RC U591:A4 6.890e-02
*END

*R_NET reg_working_divisor\[24\] 4.975e+00
*DRIVER reg_working_divisor_reg_24_:Q
*CELL DFFARX1_RVT
*C2_R1_C1 2.487e+00 5.002e-02 2.487e+00 
*LOADS
*RC U591:A2 6.074e-02
*RC U592:A4 6.368e-02
*END

*R_NET reg_working_divisor\[23\] 7.882e+00
*DRIVER reg_working_divisor_reg_23_:Q
*CELL DFFARX1_RVT
*C2_R1_C1 3.941e+00 8.117e-02 3.941e+00 
*LOADS
*RC U363:A4 7.864e-02
*RC U592:A2 6.572e-02
*RC U593:A4 6.890e-02
*END

*R_NET reg_working_divisor\[22\] 7.403e+00
*DRIVER reg_working_divisor_reg_22_:Q
*CELL DFFARX1_RVT
*C2_R1_C1 3.701e+00 8.117e-02 3.701e+00 
*LOADS
*RC U363:A2 6.567e-02
*RC U593:A2 6.572e-02
*RC U594:A4 6.890e-02
*END

*R_NET reg_working_divisor\[21\] 7.296e+00
*DRIVER reg_working_divisor_reg_21_:Q
*CELL DFFARX1_RVT
*C2_R1_C1 3.648e+00 8.117e-02 3.648e+00 
*LOADS
*RC U363:A3 7.009e-02
*RC U532:A2 6.159e-02
*RC U594:A2 6.572e-02
*END

*R_NET reg_working_divisor\[20\] 1.185e+01
*DRIVER reg_working_divisor_reg_20_:Q
*CELL DFFARX1_RVT
*C2_R1_C1 5.927e+00 1.542e-01 5.927e+00 
*LOADS
*RC U333:A1 7.618e-02
*RC U338:A1 6.605e-02
*RC U368:A1 7.555e-02
*RC U532:A3 7.760e-02
*RC U533:A2 7.023e-02
*END

*R_NET reg_working_divisor\[19\] 2.010e+01
*DRIVER reg_working_divisor_reg_19_:Q
*CELL DFFARX1_RVT
*C2_R1_C1 1.005e+01 1.969e-01 1.005e+01 
*LOADS
*RC U334:A3 7.605e-02
*RC U334:A1 7.939e-02
*RC U336:A1 7.959e-02
*RC U533:A3 8.256e-02
*RC U534:A2 7.473e-02
*RC U571:A 2.672e-01
*END

*R_NET reg_working_divisor\[18\] 1.047e+01
*DRIVER reg_working_divisor_reg_18_:Q
*CELL DFFARX1_RVT
*C2_R1_C1 5.234e+00 1.158e-01 5.234e+00 
*LOADS
*RC U304:A1 7.019e-02
*RC U330:A2 9.409e-02
*RC U534:A3 7.281e-02
*RC U535:A2 6.589e-02
*END

*R_NET reg_working_divisor\[17\] 2.010e+01
*DRIVER reg_working_divisor_reg_17_:Q
*CELL DFFARX1_RVT
*C2_R1_C1 1.005e+01 1.969e-01 1.005e+01 
*LOADS
*RC U335:A3 7.605e-02
*RC U335:A1 7.939e-02
*RC U359:A1 7.959e-02
*RC U535:A3 8.256e-02
*RC U536:A2 7.473e-02
*RC U568:A 2.672e-01
*END

*R_NET reg_working_divisor\[16\] 1.047e+01
*DRIVER reg_working_divisor_reg_16_:Q
*CELL DFFARX1_RVT
*C2_R1_C1 5.234e+00 1.158e-01 5.234e+00 
*LOADS
*RC U306:A1 7.019e-02
*RC U328:A2 9.409e-02
*RC U536:A3 7.281e-02
*RC U537:A2 6.589e-02
*END

*R_NET reg_working_divisor\[15\] 2.010e+01
*DRIVER reg_working_divisor_reg_15_:Q
*CELL DFFARX1_RVT
*C2_R1_C1 1.005e+01 1.969e-01 1.005e+01 
*LOADS
*RC U340:A1 7.959e-02
*RC U356:A3 7.605e-02
*RC U356:A1 7.939e-02
*RC U537:A3 8.256e-02
*RC U538:A2 7.473e-02
*RC U566:A 2.672e-01
*END

*R_NET reg_working_divisor\[14\] 4.791e+00
*DRIVER reg_working_divisor_reg_14_:Q
*CELL DFFARX1_RVT
*C2_R1_C1 2.395e+00 5.002e-02 2.395e+00 
*LOADS
*RC U538:A3 6.290e-02
*RC U539:A2 5.692e-02
*END

*R_NET reg_working_divisor\[13\] 1.536e+01
*DRIVER reg_working_divisor_reg_13_:Q
*CELL DFFARX1_RVT
*C2_R1_C1 7.678e+00 1.158e-01 7.678e+00 
*LOADS
*RC U357:A2 7.004e-02
*RC U539:A3 7.281e-02
*RC U540:A2 6.589e-02
*RC U563:A 2.357e-01
*END

*R_NET reg_working_divisor\[12\] 4.791e+00
*DRIVER reg_working_divisor_reg_12_:Q
*CELL DFFARX1_RVT
*C2_R1_C1 2.395e+00 5.002e-02 2.395e+00 
*LOADS
*RC U540:A3 6.290e-02
*RC U541:A2 5.692e-02
*END

*R_NET reg_working_divisor\[11\] 2.010e+01
*DRIVER reg_working_divisor_reg_11_:Q
*CELL DFFARX1_RVT
*C2_R1_C1 1.005e+01 1.969e-01 1.005e+01 
*LOADS
*RC U344:A3 7.605e-02
*RC U344:A1 7.939e-02
*RC U346:A1 7.959e-02
*RC U541:A3 8.256e-02
*RC U542:A2 7.473e-02
*RC U560:A 2.672e-01
*END

*R_NET reg_working_divisor\[10\] 1.047e+01
*DRIVER reg_working_divisor_reg_10_:Q
*CELL DFFARX1_RVT
*C2_R1_C1 5.234e+00 1.158e-01 5.234e+00 
*LOADS
*RC U311:A1 7.019e-02
*RC U322:A2 9.409e-02
*RC U542:A3 7.281e-02
*RC U543:A2 6.589e-02
*END

*R_NET reg_working_divisor\[9\] 1.738e+01
*DRIVER reg_working_divisor_reg_9_:Q
*CELL DFFARX1_RVT
*C2_R1_C1 8.691e+00 1.542e-01 8.691e+00 
*LOADS
*RC U345:A2 6.242e-02
*RC U348:A2 7.464e-02
*RC U543:A3 7.760e-02
*RC U544:A2 7.023e-02
*RC U557:A 2.512e-01
*END

*R_NET reg_working_divisor\[8\] 1.047e+01
*DRIVER reg_working_divisor_reg_8_:Q
*CELL DFFARX1_RVT
*C2_R1_C1 5.234e+00 1.158e-01 5.234e+00 
*LOADS
*RC U292:A2 9.409e-02
*RC U313:A1 7.019e-02
*RC U544:A3 7.281e-02
*RC U545:A2 6.589e-02
*END

*R_NET reg_working_divisor\[7\] 1.783e+01
*DRIVER reg_working_divisor_reg_7_:Q
*CELL DFFARX1_RVT
*C2_R1_C1 8.914e+00 1.542e-01 8.914e+00 
*LOADS
*RC U353:A1 7.618e-02
*RC U354:A2 7.464e-02
*RC U545:A3 7.760e-02
*RC U546:A2 7.023e-02
*RC U554:A 2.512e-01
*END

*R_NET reg_working_divisor\[6\] 1.767e+01
*DRIVER reg_working_divisor_reg_6_:Q
*CELL DFFARX1_RVT
*C2_R1_C1 8.837e+00 1.542e-01 8.837e+00 
*LOADS
*RC U290:A3 7.148e-02
*RC U290:A1 7.461e-02
*RC U546:A3 7.760e-02
*RC U547:A2 7.023e-02
*RC U552:A 2.512e-01
*END

*R_NET reg_working_divisor\[5\] 1.736e+01
*DRIVER reg_working_divisor_reg_5_:Q
*CELL DFFARX1_RVT
*C2_R1_C1 8.679e+00 1.542e-01 8.679e+00 
*LOADS
*RC U350:A1 6.605e-02
*RC U351:A1 7.029e-02
*RC U516:A 2.512e-01
*RC U547:A3 7.760e-02
*RC U548:A2 7.023e-02
*END

*R_NET reg_working_divisor\[4\] 4.791e+00
*DRIVER reg_working_divisor_reg_4_:Q
*CELL DFFARX1_RVT
*C2_R1_C1 2.395e+00 5.002e-02 2.395e+00 
*LOADS
*RC U548:A3 6.290e-02
*RC U549:A2 5.692e-02
*END

*R_NET reg_working_divisor\[3\] 1.767e+01
*DRIVER reg_working_divisor_reg_3_:Q
*CELL DFFARX1_RVT
*C2_R1_C1 8.837e+00 1.542e-01 8.837e+00 
*LOADS
*RC U349:A3 7.148e-02
*RC U349:A1 7.461e-02
*RC U521:A 2.512e-01
*RC U549:A3 7.760e-02
*RC U550:A2 7.023e-02
*END

*R_NET reg_working_divisor\[2\] 1.181e+01
*DRIVER reg_working_divisor_reg_2_:Q
*CELL DFFARX1_RVT
*C2_R1_C1 5.905e+00 1.542e-01 5.905e+00 
*LOADS
*RC U318:A3 7.148e-02
*RC U318:A1 7.461e-02
*RC U523:A1 7.029e-02
*RC U550:A3 7.760e-02
*RC U551:A2 7.023e-02
*END

*R_NET reg_working_divisor\[1\] 1.181e+01
*DRIVER reg_working_divisor_reg_1_:Q
*CELL DFFARX1_RVT
*C2_R1_C1 5.905e+00 1.542e-01 5.905e+00 
*LOADS
*RC U317:A3 7.148e-02
*RC U317:A1 7.461e-02
*RC U374:A2 7.023e-02
*RC U526:A1 7.029e-02
*RC U551:A3 7.760e-02
*END

*R_NET reg_working_divisor\[0\] 2.514e+00
*DRIVER reg_working_divisor_reg_0_:Q
*CELL DFFARX1_RVT
*C2_R1_C1 1.257e+00 2.192e-02 1.257e+00 
*LOADS
*RC U374:A3 5.512e-02
*END

*R_NET reg_count\[15\] 4.705e+00
*DRIVER reg_count_reg_15_:Q
*CELL DFFARX1_RVT
*C2_R1_C1 2.352e+00 5.002e-02 2.352e+00 
*LOADS
*RC U385:A1 5.697e-02
*RC U413:A2 6.069e-02
*END

*R_NET reg_count\[14\] 1.013e+01
*DRIVER reg_count_reg_14_:Q
*CELL DFFARX1_RVT
*C2_R1_C1 5.063e+00 1.158e-01 5.063e+00 
*LOADS
*RC U255:A 7.923e-02
*RC U381:A1 7.148e-02
*RC U386:A1 7.148e-02
*RC U414:A1 7.089e-02
*END

*R_NET reg_count\[13\] 7.331e+00
*DRIVER reg_count_reg_13_:Q
*CELL DFFARX1_RVT
*C2_R1_C1 3.665e+00 8.117e-02 3.665e+00 
*LOADS
*RC U379:A2 7.045e-02
*RC U388:A1 6.164e-02
*RC U413:A1 6.626e-02
*END

*R_NET reg_count\[12\] 1.176e+01
*DRIVER reg_count_reg_12_:Q
*CELL DFFARX1_RVT
*C2_R1_C1 5.880e+00 1.542e-01 5.880e+00 
*LOADS
*RC U379:A1 7.524e-02
*RC U387:A2 7.464e-02
*RC U391:A3 7.293e-02
*RC U391:A1 6.501e-02
*RC U414:A2 7.488e-02
*END

*R_NET reg_count\[11\] 7.472e+00
*DRIVER reg_count_reg_11_:Q
*CELL DFFARX1_RVT
*C2_R1_C1 3.736e+00 8.117e-02 3.736e+00 
*LOADS
*RC U378:A2 7.045e-02
*RC U393:A1 6.164e-02
*RC U414:A3 7.009e-02
*END

*R_NET reg_count\[10\] 9.815e+00
*DRIVER reg_count_reg_10_:Q
*CELL DFFARX1_RVT
*C2_R1_C1 4.908e+00 1.158e-01 4.908e+00 
*LOADS
*RC U378:A3 8.461e-02
*RC U392:A2 7.004e-02
*RC U395:A3 6.843e-02
*RC U395:A1 6.100e-02
*END

*R_NET reg_count\[9\] 7.789e+00
*DRIVER reg_count_reg_9_:Q
*CELL DFFARX1_RVT
*C2_R1_C1 3.894e+00 8.117e-02 3.894e+00 
*LOADS
*RC U377:A2 7.045e-02
*RC U397:A1 6.164e-02
*RC U413:A4 7.864e-02
*END

*R_NET reg_count\[8\] 1.192e+01
*DRIVER reg_count_reg_8_:Q
*CELL DFFARX1_RVT
*C2_R1_C1 5.962e+00 1.542e-01 5.962e+00 
*LOADS
*RC U377:A1 7.524e-02
*RC U396:A2 7.464e-02
*RC U400:A3 7.293e-02
*RC U400:A1 6.501e-02
*RC U413:A3 7.991e-02
*END

*R_NET reg_count\[7\] 7.789e+00
*DRIVER reg_count_reg_7_:Q
*CELL DFFARX1_RVT
*C2_R1_C1 3.894e+00 8.117e-02 3.894e+00 
*LOADS
*RC U376:A2 7.045e-02
*RC U402:A1 6.164e-02
*RC U414:A4 7.864e-02
*END

*R_NET reg_count\[6\] 7.621e+00
*DRIVER reg_count_reg_6_:Q
*CELL DFFARX1_RVT
*C2_R1_C1 3.810e+00 8.117e-02 3.810e+00 
*LOADS
*RC U376:A3 7.908e-02
*RC U401:A2 6.546e-02
*RC U405:A1 6.164e-02
*END

*R_NET reg_count\[5\] 4.642e+00
*DRIVER reg_count_reg_5_:Q
*CELL DFFARX1_RVT
*C2_R1_C1 2.321e+00 5.002e-02 2.321e+00 
*LOADS
*RC U408:A1 6.175e-02
*RC U428:A1 5.435e-02
*END

*R_NET reg_count\[4\] 1.009e+01
*DRIVER reg_count_reg_4_:Q
*CELL DFFARX1_RVT
*C2_R1_C1 5.047e+00 1.158e-01 5.047e+00 
*LOADS
*RC U407:A2 7.004e-02
*RC U438:A1 8.116e-02
*RC U451:A1 6.929e-02
*RC U578:A1 7.164e-02
*END

*R_NET reg_count\[3\] 2.803e+00
*DRIVER reg_count_reg_3_:Q
*CELL DFFARX1_RVT
*C2_R1_C1 1.401e+00 2.192e-02 1.401e+00 
*LOADS
*RC U437:A1 6.145e-02
*END

*R_NET reg_count\[2\] 1.338e+01
*DRIVER reg_count_reg_2_:Q
*CELL DFFARX1_RVT
*C2_R1_C1 6.692e+00 1.969e-01 6.692e+00 
*LOADS
*RC U410:A3 7.751e-02
*RC U410:A1 8.123e-02
*RC U439:A3 6.506e-02
*RC U441:A2 6.838e-02
*RC U443:A2 6.838e-02
*RC U445:A1 7.858e-02
*END

*R_NET reg_count\[1\] 1.617e+01
*DRIVER reg_count_reg_1_:Q
*CELL DFFARX1_RVT
*C2_R1_C1 8.083e+00 2.441e-01 8.083e+00 
*LOADS
*RC U410:A2 8.443e-02
*RC U412:A3 8.250e-02
*RC U412:A1 7.355e-02
*RC U429:A1 8.354e-02
*RC U431:A1 8.354e-02
*RC U439:A2 7.270e-02
*RC U441:A1 8.354e-02
*END

*R_NET reg_count\[0\] 1.422e+01
*DRIVER reg_count_reg_0_:Q
*CELL DFFARX1_RVT
*C2_R1_C1 7.108e+00 1.969e-01 7.108e+00 
*LOADS
*RC U409:A1 8.105e-02
*RC U429:A2 6.838e-02
*RC U433:A1 7.858e-02
*RC U439:A1 7.858e-02
*RC U443:A1 7.858e-02
*RC U574:A1 8.123e-02
*END

*R_NET reg_working_dividend\[20\] 2.514e+00
*DRIVER reg_working_dividend_reg_20_:Q
*CELL DFFARX1_RVT
*C2_R1_C1 1.257e+00 2.192e-02 1.257e+00 
*LOADS
*RC U371:A3 5.512e-02
*END

*R_NET reg_working_dividend\[19\] 2.316e+00
*DRIVER reg_working_dividend_reg_19_:Q
*CELL DFFARX1_RVT
*C2_R1_C1 1.158e+00 2.192e-02 1.158e+00 
*LOADS
*RC U573:A3 5.077e-02
*END

*R_NET reg_working_dividend\[18\] 2.468e+00
*DRIVER reg_working_dividend_reg_18_:Q
*CELL DFFARX1_RVT
*C2_R1_C1 1.234e+00 2.192e-02 1.234e+00 
*LOADS
*RC U495:A1 5.411e-02
*END

*R_NET reg_working_dividend\[17\] 2.316e+00
*DRIVER reg_working_dividend_reg_17_:Q
*CELL DFFARX1_RVT
*C2_R1_C1 1.158e+00 2.192e-02 1.158e+00 
*LOADS
*RC U570:A3 5.077e-02
*END

*R_NET reg_working_dividend\[16\] 2.468e+00
*DRIVER reg_working_dividend_reg_16_:Q
*CELL DFFARX1_RVT
*C2_R1_C1 1.234e+00 2.192e-02 1.234e+00 
*LOADS
*RC U499:A1 5.411e-02
*END

*R_NET reg_working_dividend\[15\] 2.316e+00
*DRIVER reg_working_dividend_reg_15_:Q
*CELL DFFARX1_RVT
*C2_R1_C1 1.158e+00 2.192e-02 1.158e+00 
*LOADS
*RC U567:A3 5.077e-02
*END

*R_NET reg_working_dividend\[14\] 8.145e+00
*DRIVER reg_working_dividend_reg_14_:Q
*CELL DFFARX1_RVT
*C2_R1_C1 4.072e+00 8.117e-02 4.072e+00 
*LOADS
*RC U308:A2 8.795e-02
*RC U326:A1 6.561e-02
*RC U503:A1 6.681e-02
*END

*R_NET reg_working_dividend\[13\] 5.159e+00
*DRIVER reg_working_dividend_reg_13_:Q
*CELL DFFARX1_RVT
*C2_R1_C1 2.580e+00 5.002e-02 2.580e+00 
*LOADS
*RC U289:A1 7.110e-02
*RC U565:A3 5.793e-02
*END

*R_NET reg_working_dividend\[12\] 8.145e+00
*DRIVER reg_working_dividend_reg_12_:Q
*CELL DFFARX1_RVT
*C2_R1_C1 4.072e+00 8.117e-02 4.072e+00 
*LOADS
*RC U310:A2 8.795e-02
*RC U324:A1 6.561e-02
*RC U507:A1 6.681e-02
*END

*R_NET reg_working_dividend\[11\] 2.316e+00
*DRIVER reg_working_dividend_reg_11_:Q
*CELL DFFARX1_RVT
*C2_R1_C1 1.158e+00 2.192e-02 1.158e+00 
*LOADS
*RC U562:A3 5.077e-02
*END

*R_NET reg_working_dividend\[10\] 2.468e+00
*DRIVER reg_working_dividend_reg_10_:Q
*CELL DFFARX1_RVT
*C2_R1_C1 1.234e+00 2.192e-02 1.234e+00 
*LOADS
*RC U511:A1 5.411e-02
*END

*R_NET reg_working_dividend\[9\] 2.316e+00
*DRIVER reg_working_dividend_reg_9_:Q
*CELL DFFARX1_RVT
*C2_R1_C1 1.158e+00 2.192e-02 1.158e+00 
*LOADS
*RC U559:A3 5.077e-02
*END

*R_NET reg_working_dividend\[8\] 2.468e+00
*DRIVER reg_working_dividend_reg_8_:Q
*CELL DFFARX1_RVT
*C2_R1_C1 1.234e+00 2.192e-02 1.234e+00 
*LOADS
*RC U515:A1 5.411e-02
*END

*R_NET reg_working_dividend\[7\] 2.316e+00
*DRIVER reg_working_dividend_reg_7_:Q
*CELL DFFARX1_RVT
*C2_R1_C1 1.158e+00 2.192e-02 1.158e+00 
*LOADS
*RC U556:A3 5.077e-02
*END

*R_NET reg_working_dividend\[6\] 2.316e+00
*DRIVER reg_working_dividend_reg_6_:Q
*CELL DFFARX1_RVT
*C2_R1_C1 1.158e+00 2.192e-02 1.158e+00 
*LOADS
*RC U553:A3 5.077e-02
*END

*R_NET reg_working_dividend\[4\] 7.954e+00
*DRIVER reg_working_dividend_reg_4_:Q
*CELL DFFARX1_RVT
*C2_R1_C1 3.977e+00 8.117e-02 3.977e+00 
*LOADS
*RC U294:A2 8.795e-02
*RC U319:A1 6.561e-02
*RC U520:A1 6.164e-02
*END

*R_NET reg_working_dividend\[2\] 4.857e+00
*DRIVER reg_working_dividend_reg_2_:Q
*CELL DFFARX1_RVT
*C2_R1_C1 2.428e+00 5.002e-02 2.428e+00 
*LOADS
*RC U523:A4 6.450e-02
*RC U525:A1 5.697e-02
*END

*R_NET reg_working_dividend\[1\] 4.857e+00
*DRIVER reg_working_dividend_reg_1_:Q
*CELL DFFARX1_RVT
*C2_R1_C1 2.428e+00 5.002e-02 2.428e+00 
*LOADS
*RC U526:A4 6.450e-02
*RC U528:A1 5.697e-02
*END

*R_NET reg_working_dividend\[0\] 5.565e+00
*DRIVER reg_working_dividend_reg_0_:Q
*CELL DFFARX1_RVT
*C2_R1_C1 2.783e+00 5.002e-02 2.783e+00 
*LOADS
*RC U316:A2 8.221e-02
*RC U530:A1 5.697e-02
*END

*R_NET reg_working_quotient\[35\] 4.963e+00
*DRIVER reg_working_quotient_reg_35_:Q
*CELL DFFARX1_RVT
*C2_R1_C1 2.482e+00 5.002e-02 2.482e+00 
*LOADS
*RC U419:A1 6.123e-02
*RC U430:A3 6.290e-02
*END

*R_NET reg_working_quotient\[34\] 4.942e+00
*DRIVER reg_working_quotient_reg_34_:Q
*CELL DFFARX1_RVT
*C2_R1_C1 2.471e+00 5.002e-02 2.471e+00 
*LOADS
*RC U419:A2 6.069e-02
*RC U432:A3 6.290e-02
*END

*R_NET reg_working_quotient\[33\] 5.105e+00
*DRIVER reg_working_quotient_reg_33_:Q
*CELL DFFARX1_RVT
*C2_R1_C1 2.552e+00 5.002e-02 2.552e+00 
*LOADS
*RC U419:A3 6.477e-02
*RC U434:A3 6.290e-02
*END

*R_NET reg_working_quotient\[32\] 5.421e+00
*DRIVER reg_working_quotient_reg_32_:Q
*CELL DFFARX1_RVT
*C2_R1_C1 2.711e+00 5.002e-02 2.711e+00 
*LOADS
*RC U419:A4 7.268e-02
*RC U435:A3 6.290e-02
*END

*R_NET reg_working_quotient\[31\] 4.963e+00
*DRIVER reg_working_quotient_reg_31_:Q
*CELL DFFARX1_RVT
*C2_R1_C1 2.482e+00 5.002e-02 2.482e+00 
*LOADS
*RC U418:A1 6.123e-02
*RC U440:A3 6.290e-02
*END

*R_NET reg_working_quotient\[30\] 4.942e+00
*DRIVER reg_working_quotient_reg_30_:Q
*CELL DFFARX1_RVT
*C2_R1_C1 2.471e+00 5.002e-02 2.471e+00 
*LOADS