*SPEF "IEEE 1481-1999"
*DESIGN "rms"
*DATE "Thu Dec  5 21:25:53 2024"
*VENDOR "SYNOPSYS INC"
*PROGRAM "Synopsys Design Compiler cmos"
*VERSION "V-2023.12-SP5"
*DESIGN_FLOW "SYNTHESIS"
*DIVIDER /
*DELIMITER :
*BUS_DELIMITER []
*T_UNIT 1.0 NS
*C_UNIT 0.0010 PF
*R_UNIT 1000.0 KOHM
*L_UNIT 1.0 HENRY

*PORTS

clk I *L 0.000e+00 *S 7.109e-03 2.358e-02 *D NBUFFX4_RVT 
rst_n I *L 0.000e+00 *S 0.000e+00 2.979e-02 *D NBUFFX4_RVT 
enable I *L 0.000e+00 *S 0.000e+00 3.124e-02 *D NBUFFX4_RVT 
start I *L 0.000e+00 *S 1.799e-03 4.229e-02 *D NBUFFX4_RVT 
input_arr\[63\] I *L 0.000e+00 *S 1.053e-02 1.442e-02 *D NBUFFX4_RVT 
input_arr\[62\] I *L 0.000e+00 *S 1.174e-02 1.478e-02 *D NBUFFX4_RVT 
input_arr\[61\] I *L 0.000e+00 *S 1.310e-02 1.518e-02 *D NBUFFX4_RVT 
input_arr\[60\] I *L 0.000e+00 *S 1.450e-02 1.558e-02 *D NBUFFX4_RVT 
input_arr\[59\] I *L 0.000e+00 *S 1.641e-02 1.616e-02 *D NBUFFX4_RVT 
input_arr\[58\] I *L 0.000e+00 *S 1.300e-02 1.888e-02 *D NBUFFX4_RVT 
input_arr\[57\] I *L 0.000e+00 *S 9.307e-03 2.183e-02 *D NBUFFX4_RVT 
input_arr\[56\] I *L 0.000e+00 *S 7.279e-03 2.345e-02 *D NBUFFX4_RVT 
input_arr\[55\] I *L 0.000e+00 *S 5.435e-03 2.492e-02 *D NBUFFX4_RVT 
input_arr\[54\] I *L 0.000e+00 *S 2.042e-04 2.909e-02 *D NBUFFX4_RVT 
input_arr\[53\] I *L 0.000e+00 *S 0.000e+00 2.950e-02 *D NBUFFX4_RVT 
input_arr\[52\] I *L 0.000e+00 *S 0.000e+00 3.592e-02 *D NBUFFX4_RVT 
input_arr\[51\] I *L 0.000e+00 *S 0.000e+00 3.092e-02 *D NBUFFX4_RVT 
input_arr\[50\] I *L 0.000e+00 *S 1.262e-03 2.825e-02 *D NBUFFX4_RVT 
input_arr\[49\] I *L 0.000e+00 *S 0.000e+00 3.895e-02 *D NBUFFX4_RVT 
input_arr\[48\] I *L 0.000e+00 *S 0.000e+00 2.993e-02 *D NBUFFX4_RVT 
input_arr\[47\] I *L 0.000e+00 *S 1.053e-02 1.442e-02 *D NBUFFX4_RVT 
input_arr\[46\] I *L 0.000e+00 *S 1.174e-02 1.478e-02 *D NBUFFX4_RVT 
input_arr\[45\] I *L 0.000e+00 *S 1.310e-02 1.518e-02 *D NBUFFX4_RVT 
input_arr\[44\] I *L 0.000e+00 *S 1.450e-02 1.558e-02 *D NBUFFX4_RVT 
input_arr\[43\] I *L 0.000e+00 *S 1.641e-02 1.616e-02 *D NBUFFX4_RVT 
input_arr\[42\] I *L 0.000e+00 *S 1.300e-02 1.888e-02 *D NBUFFX4_RVT 
input_arr\[41\] I *L 0.000e+00 *S 9.307e-03 2.183e-02 *D NBUFFX4_RVT 
input_arr\[40\] I *L 0.000e+00 *S 7.279e-03 2.345e-02 *D NBUFFX4_RVT 
input_arr\[39\] I *L 0.000e+00 *S 5.435e-03 2.492e-02 *D NBUFFX4_RVT 
input_arr\[38\] I *L 0.000e+00 *S 2.042e-04 2.909e-02 *D NBUFFX4_RVT 
input_arr\[37\] I *L 0.000e+00 *S 0.000e+00 2.950e-02 *D NBUFFX4_RVT 
input_arr\[36\] I *L 0.000e+00 *S 0.000e+00 3.592e-02 *D NBUFFX4_RVT 
input_arr\[35\] I *L 0.000e+00 *S 0.000e+00 3.092e-02 *D NBUFFX4_RVT 
input_arr\[34\] I *L 0.000e+00 *S 1.262e-03 2.825e-02 *D NBUFFX4_RVT 
input_arr\[33\] I *L 0.000e+00 *S 0.000e+00 3.895e-02 *D NBUFFX4_RVT 
input_arr\[32\] I *L 0.000e+00 *S 0.000e+00 2.993e-02 *D NBUFFX4_RVT 
input_arr\[31\] I *L 0.000e+00 *S 1.053e-02 1.442e-02 *D NBUFFX4_RVT 
input_arr\[30\] I *L 0.000e+00 *S 1.174e-02 1.478e-02 *D NBUFFX4_RVT 
input_arr\[29\] I *L 0.000e+00 *S 1.310e-02 1.518e-02 *D NBUFFX4_RVT 
input_arr\[28\] I *L 0.000e+00 *S 1.450e-02 1.558e-02 *D NBUFFX4_RVT 
input_arr\[27\] I *L 0.000e+00 *S 1.641e-02 1.616e-02 *D NBUFFX4_RVT 
input_arr\[26\] I *L 0.000e+00 *S 1.300e-02 1.888e-02 *D NBUFFX4_RVT 
input_arr\[25\] I *L 0.000e+00 *S 9.307e-03 2.183e-02 *D NBUFFX4_RVT 
input_arr\[24\] I *L 0.000e+00 *S 7.279e-03 2.345e-02 *D NBUFFX4_RVT 
input_arr\[23\] I *L 0.000e+00 *S 5.435e-03 2.492e-02 *D NBUFFX4_RVT 
input_arr\[22\] I *L 0.000e+00 *S 2.042e-04 2.909e-02 *D NBUFFX4_RVT 
input_arr\[21\] I *L 0.000e+00 *S 0.000e+00 2.950e-02 *D NBUFFX4_RVT 
input_arr\[20\] I *L 0.000e+00 *S 0.000e+00 3.592e-02 *D NBUFFX4_RVT 
input_arr\[19\] I *L 0.000e+00 *S 0.000e+00 3.092e-02 *D NBUFFX4_RVT 
input_arr\[18\] I *L 0.000e+00 *S 1.262e-03 2.825e-02 *D NBUFFX4_RVT 
input_arr\[17\] I *L 0.000e+00 *S 0.000e+00 3.895e-02 *D NBUFFX4_RVT 
input_arr\[16\] I *L 0.000e+00 *S 0.000e+00 2.993e-02 *D NBUFFX4_RVT 
input_arr\[15\] I *L 0.000e+00 *S 1.053e-02 1.442e-02 *D NBUFFX4_RVT 
input_arr\[14\] I *L 0.000e+00 *S 1.174e-02 1.478e-02 *D NBUFFX4_RVT 
input_arr\[13\] I *L 0.000e+00 *S 1.310e-02 1.518e-02 *D NBUFFX4_RVT 
input_arr\[12\] I *L 0.000e+00 *S 1.450e-02 1.558e-02 *D NBUFFX4_RVT 
input_arr\[11\] I *L 0.000e+00 *S 1.641e-02 1.616e-02 *D NBUFFX4_RVT 
input_arr\[10\] I *L 0.000e+00 *S 1.300e-02 1.888e-02 *D NBUFFX4_RVT 
input_arr\[9\] I *L 0.000e+00 *S 9.307e-03 2.183e-02 *D NBUFFX4_RVT 
input_arr\[8\] I *L 0.000e+00 *S 7.279e-03 2.345e-02 *D NBUFFX4_RVT 
input_arr\[7\] I *L 0.000e+00 *S 5.435e-03 2.492e-02 *D NBUFFX4_RVT 
input_arr\[6\] I *L 0.000e+00 *S 2.042e-04 2.909e-02 *D NBUFFX4_RVT 
input_arr\[5\] I *L 0.000e+00 *S 0.000e+00 2.950e-02 *D NBUFFX4_RVT 
input_arr\[4\] I *L 0.000e+00 *S 0.000e+00 3.592e-02 *D NBUFFX4_RVT 
input_arr\[3\] I *L 0.000e+00 *S 0.000e+00 3.092e-02 *D NBUFFX4_RVT 
input_arr\[2\] I *L 0.000e+00 *S 1.262e-03 2.825e-02 *D NBUFFX4_RVT 
input_arr\[1\] I *L 0.000e+00 *S 0.000e+00 3.895e-02 *D NBUFFX4_RVT 
input_arr\[0\] I *L 0.000e+00 *S 0.000e+00 2.993e-02 *D NBUFFX4_RVT 
rms_out\[15\] O *L 3.000e-01 *S 8.626e-03 9.875e-03 
rms_out\[14\] O *L 3.000e-01 *S 8.626e-03 9.875e-03 
rms_out\[13\] O *L 3.000e-01 *S 8.626e-03 9.875e-03 
rms_out\[12\] O *L 3.000e-01 *S 8.626e-03 9.875e-03 
rms_out\[11\] O *L 3.000e-01 *S 8.626e-03 9.875e-03 
rms_out\[10\] O *L 3.000e-01 *S 8.626e-03 9.875e-03 
rms_out\[9\] O *L 3.000e-01 *S 8.626e-03 9.875e-03 
rms_out\[8\] O *L 3.000e-01 *S 8.626e-03 9.875e-03 
rms_out\[7\] O *L 3.000e-01 *S 8.626e-03 9.875e-03 
rms_out\[6\] O *L 3.000e-01 *S 8.626e-03 9.875e-03 
rms_out\[5\] O *L 3.000e-01 *S 8.626e-03 9.875e-03 
rms_out\[4\] O *L 3.000e-01 *S 8.626e-03 9.875e-03 
rms_out\[3\] O *L 3.000e-01 *S 8.626e-03 9.875e-03 
rms_out\[2\] O *L 3.000e-01 *S 8.626e-03 9.875e-03 
rms_out\[1\] O *L 3.000e-01 *S 8.626e-03 9.875e-03 
rms_out\[0\] O *L 3.000e-01 *S 8.626e-03 9.875e-03 
done O *L 3.000e-01 *S 7.581e-03 8.704e-03 

*R_NET clk 3.630e+01
*DRIVER clk
*CELL NBUFFX4_RVT
*C2_R1_C1 1.815e+01 4.871e-01 1.815e+01 
*LOADS
*RC U241:A 1.640e-01
*RC fxp_sqrt0_it_reg_1_:CLK 1.441e-01
*RC fxp_sqrt0_root_reg_0_:CLK 1.441e-01
*RC vec_mean_reg_0_:CLK 1.444e-01
*RC vec_square_reg_0__11_:CLK 1.444e-01
*RC vec_square_reg_3__4_:CLK 1.444e-01
*RC vec_square_reg_3__15_:CLK 1.444e-01
*RC vec_square_reg_0__14_:CLK 1.444e-01
*RC vec_square_reg_3__3_:CLK 1.444e-01
*RC vec_mean_reg_2_:CLK 1.444e-01
*RC vec_square_reg_0__13_:CLK 1.444e-01
*END

*R_NET rst_n 4.481e+01
*DRIVER rst_n
*CELL NBUFFX4_RVT
*C2_R1_C1 2.241e+01 4.175e-01 2.241e+01 
*LOADS
*RC start_pp1_reg:RSTB 1.907e-01
*RC vec_square_reg_3__10_:RSTB 1.907e-01
*RC vec_square_reg_2__8_:RSTB 1.907e-01
*RC vec_square_reg_0__9_:RSTB 1.907e-01
*RC vec_square_reg_0__1_:RSTB 1.907e-01
*RC vec_mean_reg_10_:RSTB 1.907e-01
*RC vec_square_reg_3__7_:RSTB 1.907e-01
*RC vec_square_reg_2__5_:RSTB 1.907e-01
*RC vec_mean_reg_4_:RSTB 1.907e-01
*RC U205:A 1.546e-01
*END

*R_NET enable 4.629e+01
*DRIVER enable
*CELL NBUFFX4_RVT
*C2_R1_C1 2.314e+01 1.056e+00 2.314e+01 
*LOADS
*RC U684:A 2.302e-01
*RC U928:A1 1.419e-01
*RC U1255:A1 1.419e-01
*RC U427:A1 1.419e-01
*RC U1156:A1 1.419e-01
*RC U1237:A1 1.419e-01
*RC U431:A1 1.419e-01
*RC U1264:A1 1.419e-01
*RC U692:A 4.273e-01
*RC U901:A1 1.419e-01
*RC U1126:A1 1.419e-01
*RC U1136:A1 1.419e-01
*RC U1145:A1 1.419e-01
*RC U1132:A1 1.419e-01
*RC U674:A1 1.419e-01
*RC U209:A 2.302e-01
*RC U1285:A1 1.419e-01
*END

*R_NET start 2.275e+00
*DRIVER start
*CELL NBUFFX4_RVT
*C2_R1_C1 1.138e+00 2.192e-02 1.138e+00 
*LOADS
*RC U1268:A2 4.989e-02
*END

*R_NET input_arr\[63\] 1.574e+01
*DRIVER input_arr\[63\]
*CELL NBUFFX4_RVT
*C2_R1_C1 7.868e+00 2.441e-01 7.868e+00 
*LOADS
*RC U249:A2 8.317e-02
*RC U262:A2 7.061e-02
*RC U266:A1 9.715e-02
*RC U277:A2 8.317e-02
*RC U293:A2 7.345e-02
*RC U424:A2 7.061e-02
*RC U1276:A2 7.061e-02
*END

*R_NET input_arr\[62\] 1.781e+01
*DRIVER input_arr\[62\]
*CELL NBUFFX4_RVT
*C2_R1_C1 8.903e+00 2.964e-01 8.903e+00 
*LOADS
*RC U246:A2 8.837e-02
*RC U256:A2 8.837e-02
*RC U259:A2 8.837e-02
*RC U269:A2 8.837e-02
*RC U290:A4 6.780e-02
*RC U307:A2 7.503e-02
*RC U420:A2 8.837e-02
*RC U1280:A2 7.503e-02
*END

*R_NET input_arr\[61\] 2.026e+01
*DRIVER input_arr\[61\]
*CELL NBUFFX4_RVT
*C2_R1_C1 1.013e+01 3.540e-01 1.013e+01 
*LOADS
*RC U247:A2 9.384e-02
*RC U252:A2 7.968e-02
*RC U267:A2 9.384e-02
*RC U270:A2 9.384e-02
*RC U290:A3 7.235e-02
*RC U306:A2 7.968e-02
*RC U311:A2 9.384e-02
*RC U418:A1 1.104e-01
*RC U1272:A2 7.968e-02
*END

*R_NET input_arr\[60\] 2.276e+01
*DRIVER input_arr\[60\]
*CELL NBUFFX4_RVT
*C2_R1_C1 1.138e+01 4.175e-01 1.138e+01 
*LOADS
*RC U245:A1 1.172e-01
*RC U251:A2 8.458e-02
*RC U257:A2 9.961e-02
*RC U274:A2 9.961e-02
*RC U288:A2 9.961e-02
*RC U301:A2 9.961e-02
*RC U319:A4 8.744e-02
*RC U320:A4 7.643e-02
*RC U331:A2 8.458e-02
*RC U1277:A1 1.014e-01
*END

*R_NET input_arr\[59\] 2.627e+01
*DRIVER input_arr\[59\]
*CELL NBUFFX4_RVT
*C2_R1_C1 1.313e+01 4.871e-01 1.313e+01 
*LOADS
*RC U254:A1 1.243e-01
*RC U258:A2 1.057e-01
*RC U272:A2 1.057e-01
*RC U279:A1 1.075e-01
*RC U287:A2 1.057e-01
*RC U314:A2 1.057e-01
*RC U320:A3 8.148e-02
*RC U330:A2 8.974e-02
*RC U342:A2 1.057e-01
*RC U419:A1 1.243e-01
*RC U1274:A1 1.075e-01
*END

*R_NET input_arr\[58\] 2.974e+01
*DRIVER input_arr\[58\]
*CELL NBUFFX4_RVT
*C2_R1_C1 1.487e+01 6.463e-01 1.487e+01 
*LOADS
*RC U248:A1 1.208e-01
*RC U255:A1 1.396e-01
*RC U278:A1 1.208e-01
*RC U289:A2 1.187e-01
*RC U305:A2 1.187e-01
*RC U312:A2 1.187e-01
*RC U321:A2 1.187e-01
*RC U334:A2 1.038e-01
*RC U343:A4 9.110e-02
*RC U354:A4 1.055e-01
*RC U358:A2 1.008e-01
*RC U423:A2 1.187e-01
*RC U1269:A3 1.026e-01
*END

*R_NET input_arr\[57\] 3.364e+01
*DRIVER input_arr\[57\]
*CELL NBUFFX4_RVT
*C2_R1_C1 1.682e+01 7.367e-01 1.682e+01 
*LOADS
*RC U250:A1 1.279e-01
*RC U261:A2 1.257e-01
*RC U273:A1 1.478e-01
*RC U281:A3 1.086e-01
*RC U304:A2 1.257e-01
*RC U313:A2 1.257e-01
*RC U322:A2 1.257e-01
*RC U343:A3 9.692e-02
*RC U345:A2 1.257e-01
*RC U357:A2 1.067e-01
*RC U365:A2 1.257e-01
*RC U422:A 1.950e-01
*RC U1269:A1 1.263e-01
*RC U1274:A2 1.067e-01
*END

*R_NET input_arr\[56\] 3.570e+01
*DRIVER input_arr\[56\]
*CELL NBUFFX4_RVT
*C2_R1_C1 1.785e+01 8.349e-01 1.785e+01 
*LOADS
*RC U260:A 2.062e-01
*RC U268:A2 1.330e-01
*RC U278:A2 1.129e-01
*RC U281:A1 1.336e-01
*RC U286:A1 1.564e-01
*RC U309:A2 1.330e-01
*RC U333:A2 1.330e-01
*RC U344:A2 1.330e-01
*RC U351:A2 1.330e-01
*RC U361:A1 1.353e-01
*RC U369:A4 1.167e-01
*RC U371:A4 1.021e-01
*RC U387:A2 1.129e-01
*RC U419:A2 1.330e-01
*RC U1277:A2 1.129e-01
*END

*R_NET input_arr\[55\] 3.761e+01
*DRIVER input_arr\[55\]
*CELL NBUFFX4_RVT
*C2_R1_C1 1.881e+01 9.411e-01 1.881e+01 
*LOADS
*RC U250:A2 1.194e-01
*RC U255:A2 1.405e-01
*RC U268:A1 1.653e-01
*RC U279:A2 1.194e-01
*RC U301:A1 1.653e-01
*RC U310:A1 1.653e-01
*RC U319:A3 1.402e-01
*RC U319:A1 1.236e-01
*RC U323:A2 1.405e-01
*RC U340:A2 1.405e-01
*RC U352:A2 1.405e-01
*RC U363:A2 1.405e-01
*RC U371:A3 1.084e-01
*RC U385:A2 1.405e-01
*RC U386:A2 1.194e-01
*RC U1272:A1 1.430e-01
*END

*R_NET input_arr\[54\] 4.286e+01
*DRIVER input_arr\[54\]
*CELL NBUFFX4_RVT
*C2_R1_C1 2.143e+01 1.312e+00 2.143e+01 
*LOADS
*RC U245:A2 1.652e-01
*RC U248:A2 1.403e-01
*RC U254:A2 1.652e-01
*RC U273:A2 1.652e-01
*RC U286:A2 1.652e-01
*RC U310:A2 1.652e-01
*RC U334:A3 1.375e-01
*RC U341:A2 1.652e-01
*RC U350:A2 1.652e-01
*RC U354:A3 1.639e-01
*RC U354:A1 1.461e-01
*RC U370:A2 1.652e-01
*RC U376:A2 1.403e-01
*RC U379:A2 1.652e-01
*RC U390:A4 1.268e-01
*RC U391:A4 1.450e-01
*RC U395:A2 1.403e-01
*RC U418:A2 1.652e-01
*RC U1280:A1 1.681e-01
*END

*R_NET input_arr\[53\] 4.385e+01
*DRIVER input_arr\[53\]
*CELL NBUFFX4_RVT
*C2_R1_C1 2.192e+01 1.056e+00 2.192e+01 
*LOADS
*RC U247:A1 1.746e-01
*RC U251:A1 1.510e-01
*RC U258:A1 1.746e-01
*RC U289:A1 1.746e-01
*RC U304:A1 1.746e-01
*RC U309:A1 1.746e-01
*RC U323:A1 1.746e-01
*RC U341:A1 1.746e-01
*RC U360:A2 1.484e-01
*RC U364:A2 1.484e-01
*RC U369:A3 1.481e-01
*RC U369:A1 1.306e-01
*RC U378:A2 1.484e-01
*RC U383:A1 1.746e-01
*RC U399:A2 1.261e-01
*RC U420:A1 1.746e-01
*RC U1276:A1 1.510e-01
*END

*R_NET input_arr\[52\] 5.232e+01
*DRIVER input_arr\[52\]
*CELL NBUFFX4_RVT
*C2_R1_C1 2.616e+01 1.455e+00 2.616e+01 
*LOADS
*RC U246:A1 2.046e-01
*RC U252:A1 1.771e-01
*RC U257:A1 2.046e-01
*RC U272:A1 2.046e-01
*RC U305:A1 2.046e-01
*RC U313:A1 2.046e-01
*RC U333:A1 2.046e-01
*RC U340:A1 2.046e-01
*RC U350:A1 2.046e-01
*RC U364:A1 2.046e-01
*RC U375:A1 2.046e-01
*RC U384:A1 2.046e-01
*RC U390:A1 1.588e-01
*RC U391:A3 1.736e-01
*RC U391:A1 1.531e-01
*RC U394:A1 1.771e-01
*RC U398:A1 2.203e-01
*RC U402:A1 1.664e-01
*RC U406:A2 1.522e-01
*RC U424:A1 1.771e-01
*END

*R_NET input_arr\[51\] 4.579e+01
*DRIVER input_arr\[51\]
*CELL NBUFFX4_RVT
*C2_R1_C1 2.289e+01 1.056e+00 2.289e+01 
*LOADS
*RC U256:A1 1.746e-01
*RC U270:A1 1.746e-01
*RC U274:A1 1.746e-01
*RC U277:A1 1.746e-01
*RC U287:A1 1.746e-01
*RC U312:A1 1.746e-01
*RC U322:A1 1.746e-01
*RC U344:A1 1.746e-01
*RC U352:A1 1.746e-01
*RC U370:A1 1.746e-01
*RC U378:A1 1.746e-01
*RC U384:A2 1.484e-01
*RC U393:A1 1.746e-01
*RC U398:A3 1.613e-01
*RC U402:A4 1.606e-01
*RC U403:A3 1.473e-01
*RC U403:A1 1.313e-01
*END

*R_NET input_arr\[50\] 4.221e+01
*DRIVER input_arr\[50\]
*CELL NBUFFX4_RVT
*C2_R1_C1 2.111e+01 9.411e-01 2.111e+01 
*LOADS
*RC U259:A1 1.653e-01
*RC U262:A1 1.430e-01
*RC U267:A1 1.653e-01
*RC U288:A1 1.653e-01
*RC U314:A1 1.653e-01
*RC U321:A1 1.653e-01
*RC U345:A1 1.653e-01
*RC U351:A1 1.653e-01
*RC U363:A1 1.653e-01
*RC U379:A1 1.653e-01
*RC U383:A2 1.405e-01
*RC U390:A3 1.084e-01
*RC U393:A2 1.405e-01
*RC U394:A2 1.194e-01
*RC U401:A 2.180e-01
*RC U403:A2 1.255e-01
*END

*R_NET input_arr\[49\] 5.599e+01
*DRIVER input_arr\[49\]
*CELL NBUFFX4_RVT
*C2_R1_C1 2.800e+01 1.883e+00 2.800e+01 
*LOADS
*RC U249:A1 2.304e-01
*RC U269:A1 2.304e-01
*RC U290:A1 1.788e-01
*RC U302:A1 1.994e-01
*RC U306:A1 1.994e-01
*RC U319:A2 1.732e-01
*RC U320:A1 1.788e-01
*RC U330:A1 1.994e-01
*RC U334:A1 1.968e-01
*RC U343:A1 1.788e-01
*RC U353:A 3.037e-01
*RC U354:A2 1.750e-01
*RC U357:A1 1.994e-01
*RC U360:A1 2.304e-01
*RC U369:A2 1.732e-01
*RC U371:A1 1.788e-01
*RC U375:A2 1.960e-01
*RC U386:A1 1.994e-01
*RC U391:A2 1.732e-01
*RC U398:A2 2.111e-01
*RC U402:A3 2.068e-01
*RC U403:A4 1.742e-01
*RC U406:A1 1.968e-01
*END

*R_NET input_arr\[48\] 4.423e+01
*DRIVER input_arr\[48\]
*CELL NBUFFX4_RVT
*C2_R1_C1 2.211e+01 1.312e+00 2.211e+01 
*LOADS
*RC U266:A2 1.689e-01
*RC U290:A2 1.265e-01
*RC U293:A4 1.450e-01
*RC U307:A1 1.681e-01
*RC U311:A1 1.942e-01
*RC U320:A2 1.265e-01
*RC U331:A1 1.681e-01
*RC U342:A1 1.942e-01
*RC U343:A2 1.265e-01
*RC U358:A1 1.681e-01
*RC U365:A1 1.942e-01
*RC U371:A2 1.265e-01
*RC U385:A1 1.942e-01
*RC U387:A1 1.681e-01
*RC U390:A2 1.265e-01
*RC U395:A1 1.681e-01
*RC U398:A4 1.652e-01
*RC U399:A1 1.681e-01
*RC U402:A2 1.578e-01
*END

*R_NET input_arr\[47\] 1.574e+01
*DRIVER input_arr\[47\]
*CELL NBUFFX4_RVT
*C2_R1_C1 7.868e+00 2.441e-01 7.868e+00 
*LOADS
*RC U463:A2 7.061e-02
*RC U469:A2 8.317e-02
*RC U482:A2 7.061e-02
*RC U486:A1 9.715e-02
*RC U497:A2 8.317e-02
*RC U513:A2 7.345e-02
*RC U651:A2 7.061e-02
*END

*R_NET input_arr\[46\] 1.781e+01
*DRIVER input_arr\[46\]
*CELL NBUFFX4_RVT
*C2_R1_C1 8.903e+00 2.964e-01 8.903e+00 
*LOADS
*RC U466:A2 8.837e-02
*RC U476:A2 8.837e-02
*RC U479:A2 8.837e-02
*RC U489:A2 8.837e-02
*RC U510:A4 6.780e-02
*RC U527:A2 7.503e-02
*RC U640:A2 8.837e-02
*RC U655:A2 7.503e-02
*END

*R_NET input_arr\[45\] 2.026e+01
*DRIVER input_arr\[45\]
*CELL NBUFFX4_RVT
*C2_R1_C1 1.013e+01 3.540e-01 1.013e+01 
*LOADS
*RC U467:A2 9.384e-02
*RC U472:A2 7.968e-02
*RC U487:A2 9.384e-02
*RC U490:A2 9.384e-02
*RC U510:A3 7.235e-02
*RC U526:A2 7.968e-02
*RC U531:A2 9.384e-02
*RC U638:A1 1.104e-01
*RC U647:A2 7.968e-02
*END

*R_NET input_arr\[44\] 2.276e+01
*DRIVER input_arr\[44\]
*CELL NBUFFX4_RVT
*C2_R1_C1 1.138e+01 4.175e-01 1.138e+01 
*LOADS
*RC U465:A1 1.172e-01
*RC U471:A2 8.458e-02
*RC U477:A2 9.961e-02
*RC U494:A2 9.961e-02
*RC U508:A2 9.961e-02
*RC U521:A2 9.961e-02
*RC U539:A4 8.744e-02
*RC U540:A4 7.643e-02
*RC U551:A2 8.458e-02
*RC U652:A1 1.014e-01
*END

*R_NET input_arr\[43\] 2.627e+01
*DRIVER input_arr\[43\]
*CELL NBUFFX4_RVT
*C2_R1_C1 1.313e+01 4.871e-01 1.313e+01 
*LOADS
*RC U474:A1 1.243e-01
*RC U478:A2 1.057e-01
*RC U492:A2 1.057e-01
*RC U499:A1 1.075e-01
*RC U507:A2 1.057e-01
*RC U534:A2 1.057e-01
*RC U540:A3 8.148e-02
*RC U550:A2 8.974e-02
*RC U562:A2 1.057e-01
*RC U639:A1 1.243e-01
*RC U649:A1 1.075e-01
*END

*R_NET input_arr\[42\] 2.974e+01
*DRIVER input_arr\[42\]
*CELL NBUFFX4_RVT
*C2_R1_C1 1.487e+01 6.463e-01 1.487e+01 
*LOADS
*RC U464:A3 1.026e-01
*RC U468:A1 1.208e-01
*RC U475:A1 1.396e-01
*RC U498:A1 1.208e-01
*RC U509:A2 1.187e-01
*RC U525:A2 1.187e-01
*RC U532:A2 1.187e-01
*RC U541:A2 1.187e-01
*RC U554:A2 1.038e-01
*RC U563:A4 9.110e-02
*RC U574:A4 1.055e-01
*RC U578:A2 1.008e-01
*RC U643:A2 1.187e-01
*END

*R_NET input_arr\[41\] 3.364e+01
*DRIVER input_arr\[41\]
*CELL NBUFFX4_RVT
*C2_R1_C1 1.682e+01 7.367e-01 1.682e+01 
*LOADS
*RC U464:A1 1.263e-01
*RC U470:A1 1.279e-01
*RC U481:A2 1.257e-01
*RC U493:A1 1.478e-01
*RC U501:A3 1.086e-01
*RC U524:A2 1.257e-01
*RC U533:A2 1.257e-01
*RC U542:A2 1.257e-01
*RC U563:A3 9.692e-02
*RC U565:A2 1.257e-01
*RC U577:A2 1.067e-01
*RC U585:A2 1.257e-01
*RC U642:A 1.950e-01
*RC U649:A2 1.067e-01
*END

*R_NET input_arr\[40\] 3.570e+01
*DRIVER input_arr\[40\]
*CELL NBUFFX4_RVT
*C2_R1_C1 1.785e+01 8.349e-01 1.785e+01 
*LOADS
*RC U480:A 2.062e-01
*RC U488:A2 1.330e-01
*RC U498:A2 1.129e-01
*RC U501:A1 1.336e-01
*RC U506:A1 1.564e-01
*RC U529:A2 1.330e-01
*RC U553:A2 1.330e-01
*RC U564:A2 1.330e-01
*RC U571:A2 1.330e-01
*RC U581:A1 1.353e-01
*RC U589:A4 1.167e-01
*RC U591:A4 1.021e-01
*RC U607:A2 1.129e-01
*RC U639:A2 1.330e-01
*RC U652:A2 1.129e-01
*END

*R_NET input_arr\[39\] 3.761e+01
*DRIVER input_arr\[39\]
*CELL NBUFFX4_RVT
*C2_R1_C1 1.881e+01 9.411e-01 1.881e+01 
*LOADS
*RC U470:A2 1.194e-01
*RC U475:A2 1.405e-01
*RC U488:A1 1.653e-01
*RC U499:A2 1.194e-01
*RC U521:A1 1.653e-01
*RC U530:A1 1.653e-01
*RC U539:A3 1.402e-01
*RC U539:A1 1.236e-01
*RC U543:A2 1.405e-01
*RC U560:A2 1.405e-01
*RC U572:A2 1.405e-01
*RC U583:A2 1.405e-01
*RC U591:A3 1.084e-01
*RC U605:A2 1.405e-01
*RC U606:A2 1.194e-01
*RC U647:A1 1.430e-01
*END

*R_NET input_arr\[38\] 4.286e+01
*DRIVER input_arr\[38\]
*CELL NBUFFX4_RVT
*C2_R1_C1 2.143e+01 1.312e+00 2.143e+01 
*LOADS
*RC U465:A2 1.652e-01
*RC U468:A2 1.403e-01
*RC U474:A2 1.652e-01
*RC U493:A2 1.652e-01
*RC U506:A2 1.652e-01
*RC U530:A2 1.652e-01
*RC U554:A3 1.375e-01
*RC U561:A2 1.652e-01
*RC U570:A2 1.652e-01
*RC U574:A3 1.639e-01
*RC U574:A1 1.461e-01
*RC U590:A2 1.652e-01
*RC U596:A2 1.403e-01
*RC U599:A2 1.652e-01
*RC U610:A4 1.268e-01
*RC U611:A4 1.450e-01
*RC U615:A2 1.403e-01
*RC U638:A2 1.652e-01
*RC U655:A1 1.681e-01
*END

*R_NET input_arr\[37\] 4.385e+01
*DRIVER input_arr\[37\]
*CELL NBUFFX4_RVT
*C2_R1_C1 2.192e+01 1.056e+00 2.192e+01 
*LOADS
*RC U467:A1 1.746e-01
*RC U471:A1 1.510e-01
*RC U478:A1 1.746e-01
*RC U509:A1 1.746e-01
*RC U524:A1 1.746e-01
*RC U529:A1 1.746e-01
*RC U543:A1 1.746e-01
*RC U561:A1 1.746e-01
*RC U580:A2 1.484e-01
*RC U584:A2 1.484e-01
*RC U589:A3 1.481e-01
*RC U589:A1 1.306e-01
*RC U598:A2 1.484e-01
*RC U603:A1 1.746e-01
*RC U619:A2 1.261e-01
*RC U640:A1 1.746e-01
*RC U651:A1 1.510e-01
*END

*R_NET input_arr\[36\] 5.232e+01
*DRIVER input_arr\[36\]
*CELL NBUFFX4_RVT
*C2_R1_C1 2.616e+01 1.455e+00 2.616e+01 
*LOADS
*RC U463:A1 1.771e-01
*RC U466:A1 2.046e-01
*RC U472:A1 1.771e-01
*RC U477:A1 2.046e-01
*RC U492:A1 2.046e-01
*RC U525:A1 2.046e-01
*RC U533:A1 2.046e-01
*RC U553:A1 2.046e-01
*RC U560:A1 2.046e-01
*RC U570:A1 2.046e-01
*RC U584:A1 2.046e-01
*RC U595:A1 2.046e-01
*RC U604:A1 2.046e-01
*RC U610:A1 1.588e-01
*RC U611:A3 1.736e-01
*RC U611:A1 1.531e-01
*RC U614:A1 1.771e-01
*RC U618:A1 2.203e-01
*RC U622:A1 1.664e-01
*RC U626:A2 1.522e-01
*END

*R_NET input_arr\[35\] 4.579e+01
*DRIVER input_arr\[35\]
*CELL NBUFFX4_RVT
*C2_R1_C1 2.289e+01 1.056e+00 2.289e+01 
*LOADS
*RC U476:A1 1.746e-01
*RC U490:A1 1.746e-01
*RC U494:A1 1.746e-01
*RC U497:A1 1.746e-01
*RC U507:A1 1.746e-01
*RC U532:A1 1.746e-01
*RC U542:A1 1.746e-01
*RC U564:A1 1.746e-01
*RC U572:A1 1.746e-01
*RC U590:A1 1.746e-01
*RC U598:A1 1.746e-01
*RC U604:A2 1.484e-01
*RC U613:A1 1.746e-01
*RC U618:A3 1.613e-01
*RC U622:A4 1.606e-01
*RC U623:A3 1.473e-01
*RC U623:A1 1.313e-01
*END

*R_NET input_arr\[34\] 4.221e+01
*DRIVER input_arr\[34\]
*CELL NBUFFX4_RVT
*C2_R1_C1 2.111e+01 9.411e-01 2.111e+01 
*LOADS
*RC U479:A1 1.653e-01
*RC U482:A1 1.430e-01
*RC U487:A1 1.653e-01
*RC U508:A1 1.653e-01
*RC U534:A1 1.653e-01
*RC U541:A1 1.653e-01
*RC U565:A1 1.653e-01
*RC U571:A1 1.653e-01
*RC U583:A1 1.653e-01
*RC U599:A1 1.653e-01
*RC U603:A2 1.405e-01
*RC U610:A3 1.084e-01
*RC U613:A2 1.405e-01
*RC U614:A2 1.194e-01
*RC U621:A 2.180e-01
*RC U623:A2 1.255e-01
*END

*R_NET input_arr\[33\] 5.599e+01
*DRIVER input_arr\[33\]
*CELL NBUFFX4_RVT
*C2_R1_C1 2.800e+01 1.883e+00 2.800e+01 
*LOADS
*RC U469:A1 2.304e-01
*RC U489:A1 2.304e-01
*RC U510:A1 1.788e-01
*RC U522:A1 1.994e-01
*RC U526:A1 1.994e-01
*RC U539:A2 1.732e-01
*RC U540:A1 1.788e-01
*RC U550:A1 1.994e-01
*RC U554:A1 1.968e-01
*RC U563:A1 1.788e-01
*RC U573:A 3.037e-01
*RC U574:A2 1.750e-01
*RC U577:A1 1.994e-01
*RC U580:A1 2.304e-01
*RC U589:A2 1.732e-01
*RC U591:A1 1.788e-01
*RC U595:A2 1.960e-01
*RC U606:A1 1.994e-01
*RC U611:A2 1.732e-01
*RC U618:A2 2.111e-01
*RC U622:A3 2.068e-01
*RC U623:A4 1.742e-01
*RC U626:A1 1.968e-01
*END

*R_NET input_arr\[32\] 4.423e+01
*DRIVER input_arr\[32\]
*CELL NBUFFX4_RVT
*C2_R1_C1 2.211e+01 1.312e+00 2.211e+01 
*LOADS
*RC U486:A2 1.689e-01
*RC U510:A2 1.265e-01
*RC U513:A4 1.450e-01
*RC U527:A1 1.681e-01
*RC U531:A1 1.942e-01
*RC U540:A2 1.265e-01
*RC U551:A1 1.681e-01
*RC U562:A1 1.942e-01
*RC U563:A2 1.265e-01
*RC U578:A1 1.681e-01
*RC U585:A1 1.942e-01
*RC U591:A2 1.265e-01
*RC U605:A1 1.942e-01
*RC U607:A1 1.681e-01
*RC U610:A2 1.265e-01
*RC U615:A1 1.681e-01
*RC U618:A4 1.652e-01
*RC U619:A1 1.681e-01
*RC U622:A2 1.578e-01
*END

*R_NET input_arr\[31\] 1.574e+01
*DRIVER input_arr\[31\]
*CELL NBUFFX4_RVT
*C2_R1_C1 7.868e+00 2.441e-01 7.868e+00 
*LOADS
*RC U697:A2 7.061e-02
*RC U703:A2 8.317e-02
*RC U716:A2 7.061e-02
*RC U720:A1 9.715e-02
*RC U731:A2 8.317e-02
*RC U747:A2 7.345e-02
*RC U885:A2 7.061e-02
*END

*R_NET input_arr\[30\] 1.781e+01
*DRIVER input_arr\[30\]
*CELL NBUFFX4_RVT
*C2_R1_C1 8.903e+00 2.964e-01 8.903e+00 
*LOADS
*RC U700:A2 8.837e-02
*RC U710:A2 8.837e-02
*RC U713:A2 8.837e-02
*RC U723:A2 8.837e-02
*RC U744:A4 6.780e-02
*RC U761:A2 7.503e-02
*RC U874:A2 8.837e-02
*RC U889:A2 7.503e-02
*END

*R_NET input_arr\[29\] 2.026e+01
*DRIVER input_arr\[29\]
*CELL NBUFFX4_RVT
*C2_R1_C1 1.013e+01 3.540e-01 1.013e+01 
*LOADS
*RC U701:A2 9.384e-02
*RC U706:A2 7.968e-02
*RC U721:A2 9.384e-02
*RC U724:A2 9.384e-02
*RC U744:A3 7.235e-02
*RC U760:A2 7.968e-02
*RC U765:A2 9.384e-02
*RC U872:A1 1.104e-01
*RC U881:A2 7.968e-02
*END

*R_NET input_arr\[28\] 2.276e+01
*DRIVER input_arr\[28\]
*CELL NBUFFX4_RVT
*C2_R1_C1 1.138e+01 4.175e-01 1.138e+01 
*LOADS
*RC U699:A1 1.172e-01
*RC U705:A2 8.458e-02
*RC U711:A2 9.961e-02
*RC U728:A2 9.961e-02
*RC U742:A2 9.961e-02
*RC U755:A2 9.961e-02
*RC U773:A4 8.744e-02
*RC U774:A4 7.643e-02
*RC U785:A2 8.458e-02
*RC U886:A1 1.014e-01
*END

*R_NET input_arr\[27\] 2.627e+01
*DRIVER input_arr\[27\]
*CELL NBUFFX4_RVT
*C2_R1_C1 1.313e+01 4.871e-01 1.313e+01 
*LOADS
*RC U708:A1 1.243e-01
*RC U712:A2 1.057e-01
*RC U726:A2 1.057e-01
*RC U733:A1 1.075e-01
*RC U741:A2 1.057e-01
*RC U768:A2 1.057e-01
*RC U774:A3 8.148e-02
*RC U784:A2 8.974e-02
*RC U796:A2 1.057e-01
*RC U873:A1 1.243e-01
*RC U883:A1 1.075e-01
*END

*R_NET input_arr\[26\] 2.974e+01
*DRIVER input_arr\[26\]
*CELL NBUFFX4_RVT
*C2_R1_C1 1.487e+01 6.463e-01 1.487e+01 
*LOADS
*RC U698:A3 1.026e-01
*RC U702:A1 1.208e-01
*RC U709:A1 1.396e-01
*RC U732:A1 1.208e-01
*RC U743:A2 1.187e-01
*RC U759:A2 1.187e-01
*RC U766:A2 1.187e-01
*RC U775:A2 1.187e-01
*RC U788:A2 1.038e-01
*RC U797:A4 9.110e-02
*RC U808:A4 1.055e-01
*RC U812:A2 1.008e-01
*RC U877:A2 1.187e-01
*END

*R_NET input_arr\[25\] 3.364e+01
*DRIVER input_arr\[25\]
*CELL NBUFFX4_RVT
*C2_R1_C1 1.682e+01 7.367e-01 1.682e+01 
*LOADS
*RC U698:A1 1.263e-01
*RC U704:A1 1.279e-01
*RC U715:A2 1.257e-01
*RC U727:A1 1.478e-01
*RC U735:A3 1.086e-01
*RC U758:A2 1.257e-01
*RC U767:A2 1.257e-01
*RC U776:A2 1.257e-01
*RC U797:A3 9.692e-02
*RC U799:A2 1.257e-01
*RC U811:A2 1.067e-01
*RC U819:A2 1.257e-01
*RC U876:A 1.950e-01
*RC U883:A2 1.067e-01
*END

*R_NET input_arr\[24\] 3.570e+01
*DRIVER input_arr\[24\]
*CELL NBUFFX4_RVT
*C2_R1_C1 1.785e+01 8.349e-01 1.785e+01 
*LOADS
*RC U714:A 2.062e-01
*RC U722:A2 1.330e-01
*RC U732:A2 1.129e-01
*RC U735:A1 1.336e-01
*RC U740:A1 1.564e-01
*RC U763:A2 1.330e-01
*RC U787:A2 1.330e-01
*RC U798:A2 1.330e-01
*RC U805:A2 1.330e-01
*RC U815:A1 1.353e-01
*RC U823:A4 1.167e-01
*RC U825:A4 1.021e-01
*RC U841:A2 1.129e-01
*RC U873:A2 1.330e-01
*RC U886:A2 1.129e-01
*END

*R_NET input_arr\[23\] 3.761e+01
*DRIVER input_arr\[23\]
*CELL NBUFFX4_RVT
*C2_R1_C1 1.881e+01 9.411e-01 1.881e+01 
*LOADS
*RC U704:A2 1.194e-01
*RC U709:A2 1.405e-01
*RC U722:A1 1.653e-01
*RC U733:A2 1.194e-01
*RC U755:A1 1.653e-01
*RC U764:A1 1.653e-01
*RC U773:A3 1.402e-01
*RC U773:A1 1.236e-01
*RC U777:A2 1.405e-01
*RC U794:A2 1.405e-01
*RC U806:A2 1.405e-01
*RC U817:A2 1.405e-01
*RC U825:A3 1.084e-01
*RC U839:A2 1.405e-01
*RC U840:A2 1.194e-01
*RC U881:A1 1.430e-01
*END

*R_NET input_arr\[22\] 4.286e+01
*DRIVER input_arr\[22\]
*CELL NBUFFX4_RVT
*C2_R1_C1 2.143e+01 1.312e+00 2.143e+01 
*LOADS
*RC U699:A2 1.652e-01
*RC U702:A2 1.403e-01
*RC U708:A2 1.652e-01
*RC U727:A2 1.652e-01
*RC U740:A2 1.652e-01
*RC U764:A2 1.652e-01
*RC U788:A3 1.375e-01
*RC U795:A2 1.652e-01
*RC U804:A2 1.652e-01
*RC U808:A3 1.639e-01
*RC U808:A1 1.461e-01
*RC U824:A2 1.652e-01
*RC U830:A2 1.403e-01
*RC U833:A2 1.652e-01
*RC U844:A4 1.268e-01
*RC U845:A4 1.450e-01
*RC U849:A2 1.403e-01
*RC U872:A2 1.652e-01
*RC U889:A1 1.681e-01
*END

*R_NET input_arr\[21\] 4.385e+01
*DRIVER input_arr\[21\]
*CELL NBUFFX4_RVT
*C2_R1_C1 2.192e+01 1.056e+00 2.192e+01 
*LOADS
*RC U701:A1 1.746e-01
*RC U705:A1 1.510e-01
*RC U712:A1 1.746e-01
*RC U743:A1 1.746e-01
*RC U758:A1 1.746e-01
*RC U763:A1 1.746e-01
*RC U777:A1 1.746e-01
*RC U795:A1 1.746e-01
*RC U814:A2 1.484e-01
*RC U818:A2 1.484e-01
*RC U823:A3 1.481e-01
*RC U823:A1 1.306e-01
*RC U832:A2 1.484e-01
*RC U837:A1 1.746e-01
*RC U853:A2 1.261e-01
*RC U874:A1 1.746e-01
*RC U885:A1 1.510e-01
*END

*R_NET input_arr\[20\] 5.232e+01
*DRIVER input_arr\[20\]
*CELL NBUFFX4_RVT
*C2_R1_C1 2.616e+01 1.455e+00 2.616e+01 
*LOADS
*RC U697:A1 1.771e-01
*RC U700:A1 2.046e-01
*RC U706:A1 1.771e-01
*RC U711:A1 2.046e-01
*RC U726:A1 2.046e-01
*RC U759:A1 2.046e-01
*RC U767:A1 2.046e-01
*RC U787:A1 2.046e-01
*RC U794:A1 2.046e-01
*RC U804:A1 2.046e-01
*RC U818:A1 2.046e-01
*RC U829:A1 2.046e-01
*RC U838:A1 2.046e-01
*RC U844:A1 1.588e-01
*RC U845:A3 1.736e-01
*RC U845:A1 1.531e-01
*RC U848:A1 1.771e-01
*RC U852:A1 2.203e-01
*RC U856:A1 1.664e-01
*RC U860:A2 1.522e-01
*END

*R_NET input_arr\[19\] 4.579e+01
*DRIVER input_arr\[19\]
*CELL NBUFFX4_RVT
*C2_R1_C1 2.289e+01 1.056e+00 2.289e+01 
*LOADS
*RC U710:A1 1.746e-01
*RC U724:A1 1.746e-01
*RC U728:A1 1.746e-01
*RC U731:A1 1.746e-01
*RC U741:A1 1.746e-01
*RC U766:A1 1.746e-01
*RC U776:A1 1.746e-01
*RC U798:A1 1.746e-01
*RC U806:A1 1.746e-01
*RC U824:A1 1.746e-01
*RC U832:A1 1.746e-01
*RC U838:A2 1.484e-01
*RC U847:A1 1.746e-01
*RC U852:A3 1.613e-01
*RC U856:A4 1.606e-01
*RC U857:A3 1.473e-01
*RC U857:A1 1.313e-01
*END

*R_NET input_arr\[18\] 4.221e+01
*DRIVER input_arr\[18\]
*CELL NBUFFX4_RVT
*C2_R1_C1 2.111e+01 9.411e-01 2.111e+01 
*LOADS
*RC U713:A1 1.653e-01
*RC U716:A1 1.430e-01
*RC U721:A1 1.653e-01
*RC U742:A1 1.653e-01
*RC U768:A1 1.653e-01
*RC U775:A1 1.653e-01
*RC U799:A1 1.653e-01
*RC U805:A1 1.653e-01
*RC U817:A1 1.653e-01
*RC U833:A1 1.653e-01
*RC U837:A2 1.405e-01
*RC U844:A3 1.084e-01
*RC U847:A2 1.405e-01
*RC U848:A2 1.194e-01
*RC U855:A 2.180e-01
*RC U857:A2 1.255e-01
*END

*R_NET input_arr\[17\] 5.599e+01
*DRIVER input_arr\[17\]
*CELL NBUFFX4_RVT
*C2_R1_C1 2.800e+01 1.883e+00 2.800e+01 
*LOADS
*RC U703:A1 2.304e-01
*RC U723:A1 2.304e-01
*RC U744:A1 1.788e-01
*RC U756:A1 1.994e-01
*RC U760:A1 1.994e-01
*RC U773:A2 1.732e-01
*RC U774:A1 1.788e-01
*RC U784:A1 1.994e-01
*RC U788:A1 1.968e-01
*RC U797:A1 1.788e-01
*RC U807:A 3.037e-01
*RC U808:A2 1.750e-01
*RC U811:A1 1.994e-01
*RC U814:A1 2.304e-01
*RC U823:A2 1.732e-01
*RC U825:A1 1.788e-01
*RC U829:A2 1.960e-01
*RC U840:A1 1.994e-01
*RC U845:A2 1.732e-01
*RC U852:A2 2.111e-01
*RC U856:A3 2.068e-01
*RC U857:A4 1.742e-01
*RC U860:A1 1.968e-01
*END

*R_NET input_arr\[16\] 4.423e+01
*DRIVER input_arr\[16\]
*CELL NBUFFX4_RVT
*C2_R1_C1 2.211e+01 1.312e+00 2.211e+01 
*LOADS
*RC U720:A2 1.689e-01
*RC U744:A2 1.265e-01
*RC U747:A4 1.450e-01
*RC U761:A1 1.681e-01
*RC U765:A1 1.942e-01
*RC U774:A2 1.265e-01
*RC U785:A1 1.681e-01
*RC U796:A1 1.942e-01
*RC U797:A2 1.265e-01
*RC U812:A1 1.681e-01
*RC U819:A1 1.942e-01
*RC U825:A2 1.265e-01
*RC U839:A1 1.942e-01
*RC U841:A1 1.681e-01
*RC U844:A2 1.265e-01
*RC U849:A1 1.681e-01
*RC U852:A4 1.652e-01
*RC U853:A1 1.681e-01
*RC U856:A2 1.578e-01
*END

*R_NET input_arr\[15\] 1.574e+01
*DRIVER input_arr\[15\]
*CELL NBUFFX4_RVT
*C2_R1_C1 7.868e+00 2.441e-01 7.868e+00 
*LOADS
*RC U929:A2 7.061e-02
*RC U935:A2 8.317e-02
*RC U948:A2 7.061e-02
*RC U952:A1 9.715e-02
*RC U963:A2 8.317e-02
*RC U979:A2 7.345e-02
*RC U1117:A2 7.061e-02
*END

*R_NET input_arr\[14\] 1.781e+01
*DRIVER input_arr\[14\]
*CELL NBUFFX4_RVT
*C2_R1_C1 8.903e+00 2.964e-01 8.903e+00 
*LOADS
*RC U932:A2 8.837e-02
*RC U942:A2 8.837e-02
*RC U945:A2 8.837e-02
*RC U955:A2 8.837e-02
*RC U976:A4 6.780e-02
*RC U993:A2 7.503e-02
*RC U1106:A2 8.837e-02
*RC U1121:A2 7.503e-02
*END

*R_NET input_arr\[13\] 2.026e+01
*DRIVER input_arr\[13\]
*CELL NBUFFX4_RVT
*C2_R1_C1 1.013e+01 3.540e-01 1.013e+01 
*LOADS
*RC U933:A2 9.384e-02
*RC U938:A2 7.968e-02
*RC U953:A2 9.384e-02
*RC U956:A2 9.384e-02
*RC U976:A3 7.235e-02
*RC U992:A2 7.968e-02