*SPEF "IEEE 1481-1999"
*DESIGN "rms_norm"
*DATE "Thu Dec  5 22:35:23 2024"
*VENDOR "SYNOPSYS INC"
*PROGRAM "Synopsys Design Compiler cmos"
*VERSION "V-2023.12-SP5"
*DESIGN_FLOW "SYNTHESIS"
*DIVIDER /
*DELIMITER :
*BUS_DELIMITER []
*T_UNIT 1.0 NS
*C_UNIT 0.0010 PF
*R_UNIT 1000.0 KOHM
*L_UNIT 1.0 HENRY

*PORTS

clk I *L 0.000e+00 *S 1.620e-03 2.796e-02 *D NBUFFX4_RVT 
rst_n I *L 0.000e+00 *S 2.495e-03 3.509e-02 *D NBUFFX4_RVT 
enable I *L 0.000e+00 *S 0.000e+00 3.800e-02 *D NBUFFX4_RVT 
start I *L 0.000e+00 *S 1.804e-03 4.224e-02 *D NBUFFX4_RVT 
input_arr\[63\] I *L 0.000e+00 *S 1.270e-02 1.506e-02 *D NBUFFX4_RVT 
input_arr\[62\] I *L 0.000e+00 *S 1.393e-02 1.542e-02 *D NBUFFX4_RVT 
input_arr\[61\] I *L 0.000e+00 *S 1.548e-02 1.587e-02 *D NBUFFX4_RVT 
input_arr\[60\] I *L 0.000e+00 *S 1.358e-02 1.841e-02 *D NBUFFX4_RVT 
input_arr\[59\] I *L 0.000e+00 *S 1.367e-02 1.834e-02 *D NBUFFX4_RVT 
input_arr\[58\] I *L 0.000e+00 *S 8.180e-03 2.273e-02 *D NBUFFX4_RVT 
input_arr\[57\] I *L 0.000e+00 *S 4.713e-03 2.549e-02 *D NBUFFX4_RVT 
input_arr\[56\] I *L 0.000e+00 *S 7.572e-04 2.865e-02 *D NBUFFX4_RVT 
input_arr\[55\] I *L 0.000e+00 *S 0.000e+00 3.081e-02 *D NBUFFX4_RVT 
input_arr\[54\] I *L 0.000e+00 *S 0.000e+00 3.278e-02 *D NBUFFX4_RVT 
input_arr\[53\] I *L 0.000e+00 *S 0.000e+00 3.404e-02 *D NBUFFX4_RVT 
input_arr\[52\] I *L 0.000e+00 *S 0.000e+00 3.785e-02 *D NBUFFX4_RVT 
input_arr\[51\] I *L 0.000e+00 *S 3.083e-04 2.901e-02 *D NBUFFX4_RVT 
input_arr\[50\] I *L 0.000e+00 *S 4.281e-03 2.584e-02 *D NBUFFX4_RVT 
input_arr\[49\] I *L 0.000e+00 *S 0.000e+00 3.604e-02 *D NBUFFX4_RVT 
input_arr\[48\] I *L 0.000e+00 *S 0.000e+00 2.940e-02 *D NBUFFX4_RVT 
input_arr\[47\] I *L 0.000e+00 *S 1.270e-02 1.506e-02 *D NBUFFX4_RVT 
input_arr\[46\] I *L 0.000e+00 *S 1.393e-02 1.542e-02 *D NBUFFX4_RVT 
input_arr\[45\] I *L 0.000e+00 *S 1.548e-02 1.587e-02 *D NBUFFX4_RVT 
input_arr\[44\] I *L 0.000e+00 *S 1.358e-02 1.841e-02 *D NBUFFX4_RVT 
input_arr\[43\] I *L 0.000e+00 *S 1.367e-02 1.834e-02 *D NBUFFX4_RVT 
input_arr\[42\] I *L 0.000e+00 *S 8.180e-03 2.273e-02 *D NBUFFX4_RVT 
input_arr\[41\] I *L 0.000e+00 *S 4.713e-03 2.549e-02 *D NBUFFX4_RVT 
input_arr\[40\] I *L 0.000e+00 *S 7.572e-04 2.865e-02 *D NBUFFX4_RVT 
input_arr\[39\] I *L 0.000e+00 *S 0.000e+00 3.081e-02 *D NBUFFX4_RVT 
input_arr\[38\] I *L 0.000e+00 *S 0.000e+00 3.278e-02 *D NBUFFX4_RVT 
input_arr\[37\] I *L 0.000e+00 *S 0.000e+00 3.404e-02 *D NBUFFX4_RVT 
input_arr\[36\] I *L 0.000e+00 *S 0.000e+00 3.785e-02 *D NBUFFX4_RVT 
input_arr\[35\] I *L 0.000e+00 *S 3.083e-04 2.901e-02 *D NBUFFX4_RVT 
input_arr\[34\] I *L 0.000e+00 *S 4.281e-03 2.584e-02 *D NBUFFX4_RVT 
input_arr\[33\] I *L 0.000e+00 *S 0.000e+00 3.604e-02 *D NBUFFX4_RVT 
input_arr\[32\] I *L 0.000e+00 *S 0.000e+00 2.940e-02 *D NBUFFX4_RVT 
input_arr\[31\] I *L 0.000e+00 *S 1.270e-02 1.506e-02 *D NBUFFX4_RVT 
input_arr\[30\] I *L 0.000e+00 *S 1.393e-02 1.542e-02 *D NBUFFX4_RVT 
input_arr\[29\] I *L 0.000e+00 *S 1.548e-02 1.587e-02 *D NBUFFX4_RVT 
input_arr\[28\] I *L 0.000e+00 *S 1.358e-02 1.841e-02 *D NBUFFX4_RVT 
input_arr\[27\] I *L 0.000e+00 *S 1.367e-02 1.834e-02 *D NBUFFX4_RVT 
input_arr\[26\] I *L 0.000e+00 *S 8.180e-03 2.273e-02 *D NBUFFX4_RVT 
input_arr\[25\] I *L 0.000e+00 *S 4.713e-03 2.549e-02 *D NBUFFX4_RVT 
input_arr\[24\] I *L 0.000e+00 *S 7.572e-04 2.865e-02 *D NBUFFX4_RVT 
input_arr\[23\] I *L 0.000e+00 *S 0.000e+00 3.081e-02 *D NBUFFX4_RVT 
input_arr\[22\] I *L 0.000e+00 *S 0.000e+00 3.278e-02 *D NBUFFX4_RVT 
input_arr\[21\] I *L 0.000e+00 *S 0.000e+00 3.404e-02 *D NBUFFX4_RVT 
input_arr\[20\] I *L 0.000e+00 *S 0.000e+00 3.785e-02 *D NBUFFX4_RVT 
input_arr\[19\] I *L 0.000e+00 *S 3.083e-04 2.901e-02 *D NBUFFX4_RVT 
input_arr\[18\] I *L 0.000e+00 *S 4.281e-03 2.584e-02 *D NBUFFX4_RVT 
input_arr\[17\] I *L 0.000e+00 *S 0.000e+00 3.604e-02 *D NBUFFX4_RVT 
input_arr\[16\] I *L 0.000e+00 *S 0.000e+00 2.940e-02 *D NBUFFX4_RVT 
input_arr\[15\] I *L 0.000e+00 *S 1.270e-02 1.506e-02 *D NBUFFX4_RVT 
input_arr\[14\] I *L 0.000e+00 *S 1.393e-02 1.542e-02 *D NBUFFX4_RVT 
input_arr\[13\] I *L 0.000e+00 *S 1.548e-02 1.587e-02 *D NBUFFX4_RVT 
input_arr\[12\] I *L 0.000e+00 *S 1.358e-02 1.841e-02 *D NBUFFX4_RVT 
input_arr\[11\] I *L 0.000e+00 *S 1.367e-02 1.834e-02 *D NBUFFX4_RVT 
input_arr\[10\] I *L 0.000e+00 *S 8.180e-03 2.273e-02 *D NBUFFX4_RVT 
input_arr\[9\] I *L 0.000e+00 *S 4.713e-03 2.549e-02 *D NBUFFX4_RVT 
input_arr\[8\] I *L 0.000e+00 *S 7.572e-04 2.865e-02 *D NBUFFX4_RVT 
input_arr\[7\] I *L 0.000e+00 *S 0.000e+00 3.081e-02 *D NBUFFX4_RVT 
input_arr\[6\] I *L 0.000e+00 *S 0.000e+00 3.278e-02 *D NBUFFX4_RVT 
input_arr\[5\] I *L 0.000e+00 *S 0.000e+00 3.404e-02 *D NBUFFX4_RVT 
input_arr\[4\] I *L 0.000e+00 *S 0.000e+00 3.785e-02 *D NBUFFX4_RVT 
input_arr\[3\] I *L 0.000e+00 *S 3.083e-04 2.901e-02 *D NBUFFX4_RVT 
input_arr\[2\] I *L 0.000e+00 *S 4.281e-03 2.584e-02 *D NBUFFX4_RVT 
input_arr\[1\] I *L 0.000e+00 *S 0.000e+00 3.604e-02 *D NBUFFX4_RVT 
input_arr\[0\] I *L 0.000e+00 *S 0.000e+00 2.940e-02 *D NBUFFX4_RVT 
output_arr\[63\] O *L 3.000e-01 *S 9.582e-03 1.897e-02 
output_arr\[62\] O *L 3.000e-01 *S 9.582e-03 1.897e-02 
output_arr\[61\] O *L 3.000e-01 *S 9.582e-03 1.897e-02 
output_arr\[60\] O *L 3.000e-01 *S 9.582e-03 1.897e-02 
output_arr\[59\] O *L 3.000e-01 *S 9.582e-03 1.897e-02 
output_arr\[58\] O *L 3.000e-01 *S 9.582e-03 1.897e-02 
output_arr\[57\] O *L 3.000e-01 *S 9.582e-03 1.897e-02 
output_arr\[56\] O *L 3.000e-01 *S 9.582e-03 1.897e-02 
output_arr\[55\] O *L 3.000e-01 *S 9.582e-03 1.897e-02 
output_arr\[54\] O *L 3.000e-01 *S 9.582e-03 1.897e-02 
output_arr\[53\] O *L 3.000e-01 *S 9.582e-03 1.897e-02 
output_arr\[52\] O *L 3.000e-01 *S 9.582e-03 1.897e-02 
output_arr\[51\] O *L 3.000e-01 *S 9.582e-03 1.897e-02 
output_arr\[50\] O *L 3.000e-01 *S 9.582e-03 1.897e-02 
output_arr\[49\] O *L 3.000e-01 *S 9.582e-03 1.897e-02 
output_arr\[48\] O *L 3.000e-01 *S 9.582e-03 1.897e-02 
output_arr\[47\] O *L 3.000e-01 *S 9.582e-03 1.897e-02 
output_arr\[46\] O *L 3.000e-01 *S 9.582e-03 1.897e-02 
output_arr\[45\] O *L 3.000e-01 *S 9.582e-03 1.897e-02 
output_arr\[44\] O *L 3.000e-01 *S 9.582e-03 1.897e-02 
output_arr\[43\] O *L 3.000e-01 *S 9.582e-03 1.897e-02 
output_arr\[42\] O *L 3.000e-01 *S 9.582e-03 1.897e-02 
output_arr\[41\] O *L 3.000e-01 *S 9.582e-03 1.897e-02 
output_arr\[40\] O *L 3.000e-01 *S 9.582e-03 1.897e-02 
output_arr\[39\] O *L 3.000e-01 *S 9.582e-03 1.897e-02 
output_arr\[38\] O *L 3.000e-01 *S 9.582e-03 1.897e-02 
output_arr\[37\] O *L 3.000e-01 *S 9.582e-03 1.897e-02 
output_arr\[36\] O *L 3.000e-01 *S 9.582e-03 1.897e-02 
output_arr\[35\] O *L 3.000e-01 *S 9.582e-03 1.897e-02 
output_arr\[34\] O *L 3.000e-01 *S 9.582e-03 1.897e-02 
output_arr\[33\] O *L 3.000e-01 *S 9.582e-03 1.897e-02 
output_arr\[32\] O *L 3.000e-01 *S 9.582e-03 1.897e-02 
output_arr\[31\] O *L 3.000e-01 *S 9.582e-03 1.897e-02 
output_arr\[30\] O *L 3.000e-01 *S 9.582e-03 1.897e-02 
output_arr\[29\] O *L 3.000e-01 *S 9.582e-03 1.897e-02 
output_arr\[28\] O *L 3.000e-01 *S 9.582e-03 1.897e-02 
output_arr\[27\] O *L 3.000e-01 *S 9.582e-03 1.897e-02 
output_arr\[26\] O *L 3.000e-01 *S 9.582e-03 1.897e-02 
output_arr\[25\] O *L 3.000e-01 *S 9.582e-03 1.897e-02 
output_arr\[24\] O *L 3.000e-01 *S 9.582e-03 1.897e-02 
output_arr\[23\] O *L 3.000e-01 *S 9.582e-03 1.897e-02 
output_arr\[22\] O *L 3.000e-01 *S 9.582e-03 1.897e-02 
output_arr\[21\] O *L 3.000e-01 *S 9.582e-03 1.897e-02 
output_arr\[20\] O *L 3.000e-01 *S 9.582e-03 1.897e-02 
output_arr\[19\] O *L 3.000e-01 *S 9.582e-03 1.897e-02 
output_arr\[18\] O *L 3.000e-01 *S 9.582e-03 1.897e-02 
output_arr\[17\] O *L 3.000e-01 *S 9.582e-03 1.897e-02 
output_arr\[16\] O *L 3.000e-01 *S 9.582e-03 1.897e-02 
output_arr\[15\] O *L 3.000e-01 *S 9.582e-03 1.897e-02 
output_arr\[14\] O *L 3.000e-01 *S 9.582e-03 1.897e-02 
output_arr\[13\] O *L 3.000e-01 *S 9.582e-03 1.897e-02 
output_arr\[12\] O *L 3.000e-01 *S 9.582e-03 1.897e-02 
output_arr\[11\] O *L 3.000e-01 *S 9.582e-03 1.897e-02 
output_arr\[10\] O *L 3.000e-01 *S 9.582e-03 1.897e-02 
output_arr\[9\] O *L 3.000e-01 *S 9.582e-03 1.897e-02 
output_arr\[8\] O *L 3.000e-01 *S 9.582e-03 1.897e-02 
output_arr\[7\] O *L 3.000e-01 *S 9.582e-03 1.897e-02 
output_arr\[6\] O *L 3.000e-01 *S 9.582e-03 1.897e-02 
output_arr\[5\] O *L 3.000e-01 *S 9.582e-03 1.897e-02 
output_arr\[4\] O *L 3.000e-01 *S 9.582e-03 1.897e-02 
output_arr\[3\] O *L 3.000e-01 *S 9.582e-03 1.897e-02 
output_arr\[2\] O *L 3.000e-01 *S 9.582e-03 1.897e-02 
output_arr\[1\] O *L 3.000e-01 *S 9.582e-03 1.897e-02 
output_arr\[0\] O *L 3.000e-01 *S 9.582e-03 1.897e-02 
done O *L 3.000e-01 *S 1.906e-03 3.272e-03 

*R_NET clk 4.192e+01
*DRIVER clk
*CELL NBUFFX4_RVT
*C2_R1_C1 2.096e+01 6.020e-01 2.096e+01 
*LOADS
*RC U2224:A 1.227e-01
*RC vec_div0_div_units_0__fxp_div_inst_au_r_reg_2_:CLK 1.516e-01
*RC vec_div0_div_units_0__fxp_div_inst_au_r_reg_1_:CLK 1.516e-01
*RC vec_div0_div_units_0__fxp_div_inst_au_r_reg_12_:CLK 1.516e-01
*RC vec_div0_div_units_0__fxp_div_inst_count_r_reg_5_:CLK 1.516e-01
*RC vec_div0_div_units_0__fxp_div_inst_state_r_reg_2_:CLK 1.516e-01
*RC vec_div0_div_units_0__fxp_div_inst_state_r_reg_0_:CLK 1.516e-01
*RC vec_div0_div_units_0__fxp_div_inst_count_r_reg_4_:CLK 1.516e-01
*RC vec_div0_div_units_0__fxp_div_inst_state_r_reg_1_:CLK 1.516e-01
*RC vec_div0_div_units_0__fxp_div_inst_quo_r_reg_8_:CLK 1.516e-01
*RC vec_div0_div_units_0__fxp_div_inst_quo_r_reg_7_:CLK 1.516e-01
*RC vec_div0_div_units_0__fxp_div_inst_quo_r_reg_6_:CLK 1.516e-01
*RC vec_div0_div_units_0__fxp_div_inst_quo_r_reg_5_:CLK 1.516e-01
*END

*R_NET rst_n 1.941e+00
*DRIVER rst_n
*CELL NBUFFX4_RVT
*C2_R1_C1 9.706e-01 1.936e-02 9.706e-01 
*LOADS
*RC U2232:A 3.759e-02
*END

*R_NET enable 5.493e+01
*DRIVER enable
*CELL NBUFFX4_RVT
*C2_R1_C1 2.747e+01 1.385e+00 2.747e+01 
*LOADS
*RC U4488:A1 1.595e-01
*RC U4492:A1 1.595e-01
*RC U4484:A1 1.595e-01
*RC U2183:A 2.580e-01
*RC U4930:A1 1.595e-01
*RC U2732:A 4.778e-01
*RC U4838:A1 1.595e-01
*RC U4928:A1 1.595e-01
*RC U4856:A1 1.595e-01
*RC U2185:A 2.580e-01
*RC U4920:A1 1.595e-01
*RC U4606:A1 1.595e-01
*RC U4584:A1 1.595e-01
*RC U4018:A1 1.595e-01
*RC U4012:A1 1.595e-01
*RC U4246:A1 1.595e-01
*RC U2281:A 2.580e-01
*RC U4261:A1 1.595e-01
*RC U4471:A1 1.595e-01
*RC U4014:A1 1.595e-01
*END

*R_NET start 2.280e+00
*DRIVER start
*CELL NBUFFX4_RVT
*C2_R1_C1 1.140e+00 1.936e-02 1.140e+00 
*LOADS
*RC U2981:A2 4.414e-02
*END

*R_NET input_arr\[63\] 1.972e+01
*DRIVER input_arr\[63\]
*CELL NBUFFX4_RVT
*C2_R1_C1 9.862e+00 2.704e-01 9.862e+00 
*LOADS
*RC U2285:A1 9.509e-02
*RC U4029:A1 7.733e-02
*RC U4743:A1 9.443e-02
*RC U4744:A2 7.146e-02
*RC U4871:A1 8.228e-02
*RC U4885:A1 9.509e-02
*RC U4892:A1 8.228e-02
*RC U5015:A2 6.871e-02
*END

*R_NET input_arr\[62\] 2.182e+01
*DRIVER input_arr\[62\]
*CELL NBUFFX4_RVT
*C2_R1_C1 1.091e+01 3.244e-01 1.091e+01 
*LOADS
*RC U2289:A1 1.015e-01
*RC U4269:A1 8.251e-02
*RC U4642:A1 8.779e-02
*RC U4644:A2 6.611e-02
*RC U4751:A1 1.015e-01
*RC U4763:A1 1.015e-01
*RC U4883:A2 8.629e-02
*RC U4890:A2 8.629e-02
*RC U5011:A2 7.331e-02
*END

*R_NET input_arr\[61\] 2.464e+01
*DRIVER input_arr\[61\]
*CELL NBUFFX4_RVT
*C2_R1_C1 1.232e+01 3.842e-01 1.232e+01 
*LOADS
*RC U4514:A1 8.799e-02
*RC U4641:A1 1.082e-01
*RC U4643:A1 9.362e-02
*RC U4644:A1 8.396e-02
*RC U4750:A1 1.082e-01
*RC U4756:A1 1.082e-01
*RC U4878:A2 7.818e-02
*RC U4882:A2 9.201e-02
*RC U4889:A1 1.082e-01
*RC U5004:A2 7.818e-02
*END

*R_NET input_arr\[60\] 2.921e+01
*DRIVER input_arr\[60\]
*CELL NBUFFX4_RVT
*C2_R1_C1 1.461e+01 5.226e-01 1.461e+01 
*LOADS
*RC U4625:A1 9.526e-02
*RC U4629:A2 1.067e-01
*RC U4630:A2 9.226e-02
*RC U4633:A1 1.227e-01
*RC U4647:A1 1.062e-01
*RC U4747:A1 1.227e-01
*RC U4762:A2 1.044e-01
*RC U4879:A2 8.872e-02
*RC U4881:A1 1.227e-01
*RC U4896:A2 1.044e-01
*RC U5007:A1 1.062e-01
*RC U5030:A1 9.983e-02
*END

*R_NET input_arr\[59\] 2.910e+01
*DRIVER input_arr\[59\]
*CELL NBUFFX4_RVT
*C2_R1_C1 1.455e+01 5.226e-01 1.455e+01 
*LOADS
*RC U4590:A1 9.983e-02
*RC U4625:A2 8.001e-02
*RC U4631:A1 1.227e-01
*RC U4639:A1 1.227e-01
*RC U4648:A1 1.062e-01
*RC U4660:A1 1.227e-01
*RC U4746:A2 1.044e-01
*RC U4761:A2 1.044e-01
*RC U4875:A1 1.227e-01
*RC U4886:A2 8.872e-02
*RC U4891:A2 1.044e-01
*RC U5008:A2 8.872e-02
*END

*R_NET input_arr\[58\] 3.490e+01
*DRIVER input_arr\[58\]
*CELL NBUFFX4_RVT
*C2_R1_C1 1.745e+01 6.887e-01 1.745e+01 
*LOADS
*RC U2311:A2 1.043e-01
*RC U4607:A1 1.129e-01
*RC U4627:A1 1.387e-01
*RC U4635:A2 1.180e-01
*RC U4638:A1 1.387e-01
*RC U4645:A1 1.378e-01
*RC U4655:A2 9.050e-02
*RC U4675:A1 1.201e-01
*RC U4754:A1 1.387e-01
*RC U4758:A1 1.201e-01
*RC U4876:A1 1.387e-01
*RC U4887:A1 1.201e-01
*RC U4893:A3 1.021e-01
*RC U4894:A6 1.358e-01
*END

*R_NET input_arr\[57\] 3.856e+01
*DRIVER input_arr\[57\]
*CELL NBUFFX4_RVT
*C2_R1_C1 1.928e+01 7.831e-01 1.928e+01 
*LOADS
*RC U4251:A1 1.199e-01
*RC U4626:A1 1.473e-01
*RC U4636:A1 1.473e-01
*RC U4637:A1 1.473e-01
*RC U4655:A1 1.144e-01
*RC U4656:A1 1.473e-01
*RC U4674:A1 1.473e-01
*RC U4676:A1 1.275e-01
*RC U4745:A1 1.473e-01
*RC U4759:A1 1.275e-01
*RC U4872:A3 1.085e-01
*RC U4874:A6 1.442e-01
*RC U4893:A1 1.260e-01
*RC U4894:A4 1.339e-01
*RC U5008:A1 1.275e-01
*END

*R_NET input_arr\[56\] 4.247e+01
*DRIVER input_arr\[56\]
*CELL NBUFFX4_RVT
*C2_R1_C1 2.124e+01 9.968e-01 2.124e+01 
*LOADS
*RC U2291:A2 1.409e-01
*RC U4632:A1 1.656e-01
*RC U4650:A2 1.409e-01
*RC U4657:A1 1.656e-01
*RC U4665:A1 1.656e-01
*RC U4678:A2 1.441e-01
*RC U4683:A2 1.081e-01
*RC U4684:A2 1.246e-01
*RC U4693:A1 1.434e-01
*RC U4742:A 2.181e-01
*RC U4749:A2 1.409e-01
*RC U4851:A1 1.348e-01
*RC U4872:A1 1.417e-01
*RC U4874:A4 1.505e-01
*RC U4887:A2 1.198e-01
*RC U4891:A1 1.656e-01
*RC U5007:A2 1.198e-01
*END

*R_NET input_arr\[55\] 4.538e+01
*DRIVER input_arr\[55\]
*CELL NBUFFX4_RVT
*C2_R1_C1 2.269e+01 1.117e+00 2.269e+01 
*LOADS
*RC U4628:A2 1.492e-01
*RC U4629:A1 1.741e-01
*RC U4630:A3 1.489e-01
*RC U4630:A1 1.314e-01
*RC U4640:A1 1.753e-01
*RC U4659:A2 1.492e-01
*RC U4667:A1 1.753e-01
*RC U4673:A1 1.753e-01
*RC U4683:A1 1.362e-01
*RC U4694:A1 1.518e-01
*RC U4698:A1 1.753e-01
*RC U4749:A1 1.753e-01
*RC U4759:A2 1.269e-01
*RC U4876:A2 1.492e-01
*RC U4886:A1 1.518e-01
*RC U4896:A1 1.753e-01
*RC U5004:A1 1.518e-01
*RC U5037:A1 1.427e-01
*END

*R_NET input_arr\[54\] 4.761e+01
*DRIVER input_arr\[54\]
*CELL NBUFFX4_RVT
*C2_R1_C1 2.380e+01 1.385e+00 2.380e+01 
*LOADS
*RC U2311:A3 1.664e-01
*RC U2311:A1 1.469e-01
*RC U4016:A1 1.595e-01
*RC U4632:A2 1.668e-01
*RC U4640:A2 1.668e-01
*RC U4645:A2 1.705e-01
*RC U4658:A2 1.668e-01
*RC U4666:A2 1.668e-01
*RC U4685:A1 1.959e-01
*RC U4689:A2 1.705e-01
*RC U4690:A1 1.959e-01
*RC U4700:A2 1.475e-01
*RC U4702:A2 1.280e-01
*RC U4704:A1 1.697e-01
*RC U4745:A2 1.668e-01
*RC U4758:A2 1.419e-01
*RC U4875:A2 1.668e-01
*RC U4881:A2 1.668e-01
*RC U4889:A2 1.668e-01
*RC U5011:A1 1.697e-01
*END

*R_NET input_arr\[53\] 4.964e+01
*DRIVER input_arr\[53\]
*CELL NBUFFX4_RVT
*C2_R1_C1 2.482e+01 1.246e+00 2.482e+01 
*LOADS
*RC U2291:A1 1.854e-01
*RC U4582:A1 1.510e-01
*RC U4628:A1 1.854e-01
*RC U4636:A2 1.578e-01
*RC U4658:A1 1.854e-01
*RC U4672:A2 1.578e-01
*RC U4678:A1 1.841e-01
*RC U4684:A3 1.575e-01
*RC U4684:A1 1.390e-01
*RC U4691:A1 1.854e-01
*RC U4697:A1 1.854e-01
*RC U4707:A1 1.854e-01
*RC U4710:A1 1.606e-01
*RC U4754:A2 1.578e-01
*RC U4761:A1 1.854e-01
*RC U4879:A1 1.606e-01
*RC U4882:A1 1.854e-01
*RC U4890:A1 1.854e-01
*RC U5015:A1 1.606e-01
*END

*R_NET input_arr\[52\] 5.463e+01
*DRIVER input_arr\[52\]
*CELL NBUFFX4_RVT
*C2_R1_C1 2.732e+01 1.524e+00 2.732e+01 
*LOADS
*RC U4259:A1 1.673e-01
*RC U4635:A1 2.054e-01
*RC U4637:A2 1.749e-01
*RC U4650:A1 2.054e-01
*RC U4659:A1 2.054e-01
*RC U4666:A1 2.054e-01
*RC U4672:A1 2.054e-01
*RC U4689:A1 2.040e-01
*RC U4696:A1 2.054e-01
*RC U4700:A3 1.745e-01
*RC U4700:A1 1.540e-01
*RC U4702:A1 1.597e-01
*RC U4705:A1 1.779e-01
*RC U4709:A1 2.211e-01
*RC U4711:A1 1.779e-01
*RC U4715:A1 1.779e-01
*RC U4746:A1 2.054e-01
*RC U4762:A1 2.054e-01
*RC U4878:A1 1.779e-01
*RC U4883:A1 2.054e-01
*RC U4892:A2 1.488e-01
*END

*R_NET input_arr\[51\] 4.278e+01
*DRIVER input_arr\[51\]
*CELL NBUFFX4_RVT
*C2_R1_C1 2.139e+01 9.968e-01 2.139e+01 
*LOADS
*RC U2289:A2 1.409e-01
*RC U2742:A3 1.487e-01
*RC U4626:A2 1.409e-01
*RC U4631:A2 1.409e-01
*RC U4638:A2 1.409e-01
*RC U4657:A2 1.409e-01
*RC U4667:A2 1.409e-01
*RC U4685:A2 1.409e-01
*RC U4691:A2 1.409e-01
*RC U4696:A2 1.409e-01
*RC U4708:A1 1.656e-01
*RC U4709:A4 1.410e-01
*RC U4714:A1 1.434e-01
*RC U4716:A 2.181e-01
*RC U4747:A2 1.409e-01
*RC U4756:A2 1.409e-01
*RC U4885:A2 1.409e-01
*END

*R_NET input_arr\[50\] 3.861e+01
*DRIVER input_arr\[50\]
*CELL NBUFFX4_RVT
*C2_R1_C1 1.931e+01 8.857e-01 1.931e+01 
*LOADS
*RC U2774:A3 1.403e-01
*RC U4627:A2 1.330e-01
*RC U4633:A2 1.330e-01
*RC U4639:A2 1.330e-01
*RC U4656:A2 1.330e-01
*RC U4665:A2 1.330e-01
*RC U4673:A2 1.330e-01
*RC U4690:A2 1.330e-01
*RC U4697:A2 1.330e-01
*RC U4702:A4 1.022e-01
*RC U4705:A2 1.131e-01
*RC U4708:A2 1.330e-01
*RC U4713:A 2.059e-01
*RC U4750:A2 1.330e-01
*RC U4763:A2 1.330e-01
*RC U4871:A2 1.131e-01
*END

*R_NET input_arr\[49\] 5.156e+01
*DRIVER input_arr\[49\]
*CELL NBUFFX4_RVT
*C2_R1_C1 2.578e+01 1.802e+00 2.578e+01 
*LOADS
*RC U2285:A2 1.890e-01
*RC U2311:A4 1.662e-01
*RC U2786:A3 1.994e-01
*RC U4625:A3 1.462e-01
*RC U4629:A3 1.810e-01
*RC U4630:A4 1.662e-01
*RC U4643:A2 1.608e-01
*RC U4644:A3 1.462e-01
*RC U4645:A3 1.810e-01
*RC U4648:A2 1.608e-01
*RC U4655:A3 1.462e-01
*RC U4676:A2 1.608e-01
*RC U4678:A3 1.810e-01
*RC U4683:A3 1.462e-01
*RC U4684:A4 1.662e-01
*RC U4689:A3 1.810e-01
*RC U4694:A2 1.608e-01
*RC U4700:A4 1.662e-01
*RC U4707:A2 1.890e-01
*RC U4709:A2 2.035e-01
*RC U4711:A2 1.608e-01
*RC U4718:A 2.922e-01
*RC U4751:A2 1.890e-01
*END

*R_NET input_arr\[48\] 4.298e+01
*DRIVER input_arr\[48\]
*CELL NBUFFX4_RVT
*C2_R1_C1 2.149e+01 1.385e+00 2.149e+01 
*LOADS
*RC U2790:A3 1.760e-01
*RC U4625:A4 1.283e-01
*RC U4641:A2 1.668e-01
*RC U4642:A2 1.419e-01
*RC U4644:A4 1.283e-01
*RC U4647:A2 1.419e-01
*RC U4655:A4 1.283e-01
*RC U4660:A2 1.668e-01
*RC U4674:A2 1.668e-01
*RC U4675:A2 1.419e-01
*RC U4683:A4 1.283e-01
*RC U4693:A2 1.419e-01
*RC U4698:A2 1.668e-01
*RC U4702:A3 1.290e-01
*RC U4704:A2 1.419e-01
*RC U4709:A3 1.811e-01
*RC U4710:A2 1.419e-01
*RC U4715:A2 1.419e-01
*RC U4743:A2 1.705e-01
*RC U4744:A4 1.466e-01
*END

*R_NET input_arr\[47\] 1.972e+01
*DRIVER input_arr\[47\]
*CELL NBUFFX4_RVT
*C2_R1_C1 9.862e+00 2.704e-01 9.862e+00 
*LOADS
*RC U2286:A1 9.509e-02
*RC U3860:A1 9.443e-02
*RC U3861:A2 7.146e-02
*RC U4033:A1 7.733e-02
*RC U4942:A1 8.228e-02
*RC U4947:A1 9.509e-02
*RC U4952:A1 8.228e-02
*RC U4997:A2 6.871e-02
*END

*R_NET input_arr\[46\] 2.182e+01
*DRIVER input_arr\[46\]
*CELL NBUFFX4_RVT
*C2_R1_C1 1.091e+01 3.244e-01 1.091e+01 
*LOADS
*RC U2313:A2 8.629e-02
*RC U3868:A1 1.015e-01
*RC U3871:A2 6.611e-02
*RC U3883:A1 1.015e-01
*RC U3890:A1 8.779e-02
*RC U4273:A1 8.251e-02
*RC U4945:A1 1.015e-01
*RC U4968:A2 8.629e-02
*RC U4993:A2 7.331e-02
*END

*R_NET input_arr\[45\] 2.464e+01
*DRIVER input_arr\[45\]
*CELL NBUFFX4_RVT
*C2_R1_C1 1.232e+01 3.842e-01 1.232e+01 
*LOADS
*RC U3867:A1 1.082e-01
*RC U3871:A1 8.396e-02
*RC U3877:A1 1.082e-01
*RC U3889:A1 1.082e-01
*RC U3891:A1 9.362e-02
*RC U4517:A1 8.799e-02
*RC U4950:A1 1.082e-01
*RC U4956:A2 7.818e-02
*RC U4963:A2 7.818e-02
*RC U4967:A2 9.201e-02
*END

*R_NET input_arr\[44\] 2.921e+01
*DRIVER input_arr\[44\]
*CELL NBUFFX4_RVT
*C2_R1_C1 1.461e+01 5.226e-01 1.461e+01 
*LOADS
*RC U2293:A2 1.044e-01
*RC U2315:A2 9.226e-02
*RC U3864:A1 1.227e-01
*RC U3874:A1 1.227e-01
*RC U3893:A2 1.067e-01
*RC U3899:A1 9.526e-02
*RC U3909:A1 1.062e-01
*RC U4864:A1 9.983e-02
*RC U4964:A2 8.872e-02
*RC U4966:A1 1.227e-01
*RC U4971:A2 1.044e-01
*RC U4989:A1 1.062e-01
*END

*R_NET input_arr\[43\] 2.910e+01
*DRIVER input_arr\[43\]
*CELL NBUFFX4_RVT
*C2_R1_C1 1.455e+01 5.226e-01 1.455e+01 
*LOADS
*RC U3863:A2 1.044e-01
*RC U3872:A1 1.227e-01
*RC U3882:A2 1.044e-01
*RC U3886:A1 1.227e-01
*RC U3899:A2 8.001e-02
*RC U3910:A1 1.062e-01
*RC U3923:A1 1.227e-01
*RC U4593:A1 9.983e-02
*RC U4944:A1 1.227e-01
*RC U4948:A2 8.872e-02
*RC U4951:A2 1.044e-01
*RC U4990:A2 8.872e-02
*END

*R_NET input_arr\[42\] 3.490e+01
*DRIVER input_arr\[42\]
*CELL NBUFFX4_RVT
*C2_R1_C1 1.745e+01 6.887e-01 1.745e+01 
*LOADS
*RC U2294:A2 1.180e-01
*RC U2295:A1 1.387e-01
*RC U3875:A1 1.387e-01
*RC U3879:A1 1.201e-01
*RC U3885:A1 1.387e-01
*RC U3907:A1 1.378e-01
*RC U3918:A2 9.050e-02
*RC U3931:A2 1.043e-01
*RC U3938:A1 1.201e-01
*RC U4610:A1 1.129e-01
*RC U4946:A1 1.387e-01
*RC U4949:A1 1.201e-01
*RC U4953:A3 1.021e-01
*RC U4954:A6 1.358e-01
*END

*R_NET input_arr\[41\] 3.856e+01
*DRIVER input_arr\[41\]
*CELL NBUFFX4_RVT
*C2_R1_C1 1.928e+01 7.831e-01 1.928e+01 
*LOADS
*RC U3862:A1 1.473e-01
*RC U3880:A1 1.275e-01
*RC U3884:A1 1.473e-01
*RC U3895:A1 1.473e-01
*RC U3900:A1 1.473e-01
*RC U3918:A1 1.144e-01
*RC U3919:A1 1.473e-01
*RC U3937:A1 1.473e-01
*RC U3939:A1 1.275e-01
*RC U4254:A1 1.199e-01
*RC U4943:A3 1.085e-01
*RC U4953:A1 1.260e-01
*RC U4954:A4 1.339e-01
*RC U4960:A6 1.442e-01
*RC U4990:A1 1.275e-01
*END

*R_NET input_arr\[40\] 4.247e+01
*DRIVER input_arr\[40\]
*CELL NBUFFX4_RVT
*C2_R1_C1 2.124e+01 9.968e-01 2.124e+01 
*LOADS
*RC U2316:A1 1.656e-01
*RC U3859:A 2.181e-01
*RC U3866:A2 1.409e-01
*RC U3873:A1 1.656e-01
*RC U3888:A2 1.409e-01
*RC U3912:A2 1.409e-01
*RC U3920:A1 1.656e-01
*RC U3941:A2 1.441e-01
*RC U3946:A2 1.081e-01
*RC U3947:A2 1.246e-01
*RC U3957:A1 1.434e-01
*RC U4932:A1 1.348e-01
*RC U4943:A1 1.417e-01
*RC U4949:A2 1.198e-01
*RC U4951:A1 1.656e-01
*RC U4960:A4 1.505e-01
*RC U4989:A2 1.198e-01
*END

*R_NET input_arr\[39\] 4.538e+01
*DRIVER input_arr\[39\]
*CELL NBUFFX4_RVT
*C2_R1_C1 2.269e+01 1.117e+00 2.269e+01 
*LOADS
*RC U2315:A3 1.489e-01
*RC U2315:A1 1.314e-01
*RC U3866:A1 1.753e-01
*RC U3880:A2 1.269e-01
*RC U3887:A1 1.753e-01
*RC U3893:A1 1.741e-01
*RC U3901:A2 1.492e-01
*RC U3922:A2 1.492e-01
*RC U3929:A1 1.753e-01
*RC U3936:A1 1.753e-01
*RC U3946:A1 1.362e-01
*RC U3958:A1 1.518e-01
*RC U3961:A1 1.753e-01
*RC U4946:A2 1.492e-01
*RC U4948:A1 1.518e-01
*RC U4956:A1 1.518e-01
*RC U4971:A1 1.753e-01
*RC U5018:A1 1.427e-01
*END

*R_NET input_arr\[38\] 4.761e+01
*DRIVER input_arr\[38\]
*CELL NBUFFX4_RVT
*C2_R1_C1 2.380e+01 1.385e+00 2.380e+01 
*LOADS
*RC U3862:A2 1.668e-01
*RC U3873:A2 1.668e-01
*RC U3879:A2 1.419e-01
*RC U3887:A2 1.668e-01
*RC U3907:A2 1.705e-01
*RC U3921:A2 1.668e-01
*RC U3928:A2 1.668e-01
*RC U3931:A3 1.664e-01
*RC U3931:A1 1.469e-01
*RC U3948:A1 1.959e-01
*RC U3952:A2 1.705e-01
*RC U3954:A1 1.959e-01
*RC U3963:A2 1.475e-01
*RC U3965:A2 1.280e-01
*RC U3967:A1 1.697e-01
*RC U4019:A1 1.595e-01
*RC U4944:A2 1.668e-01
*RC U4950:A2 1.668e-01
*RC U4966:A2 1.668e-01
*RC U4993:A1 1.697e-01
*END

*R_NET input_arr\[37\] 4.964e+01
*DRIVER input_arr\[37\]
*CELL NBUFFX4_RVT
*C2_R1_C1 2.482e+01 1.246e+00 2.482e+01 
*LOADS
*RC U2313:A1 1.854e-01
*RC U2317:A1 1.854e-01
*RC U3875:A2 1.578e-01
*RC U3882:A1 1.854e-01
*RC U3888:A1 1.854e-01
*RC U3895:A2 1.578e-01
*RC U3901:A1 1.854e-01
*RC U3921:A1 1.854e-01
*RC U3935:A2 1.578e-01
*RC U3941:A1 1.841e-01
*RC U3947:A3 1.575e-01
*RC U3947:A1 1.390e-01
*RC U3955:A1 1.854e-01
*RC U3970:A1 1.854e-01
*RC U3973:A1 1.606e-01
*RC U4585:A1 1.510e-01
*RC U4964:A1 1.606e-01
*RC U4967:A1 1.854e-01
*RC U4997:A1 1.606e-01
*END

*R_NET input_arr\[36\] 5.463e+01
*DRIVER input_arr\[36\]
*CELL NBUFFX4_RVT
*C2_R1_C1 2.732e+01 1.524e+00 2.732e+01 
*LOADS
*RC U2293:A1 2.054e-01
*RC U2294:A1 2.054e-01
*RC U3863:A1 2.054e-01
*RC U3884:A2 1.749e-01
*RC U3912:A1 2.054e-01
*RC U3922:A1 2.054e-01
*RC U3928:A1 2.054e-01
*RC U3935:A1 2.054e-01
*RC U3952:A1 2.040e-01
*RC U3960:A1 2.054e-01
*RC U3963:A3 1.745e-01
*RC U3963:A1 1.540e-01
*RC U3965:A1 1.597e-01
*RC U3968:A1 1.779e-01
*RC U3972:A1 2.211e-01
*RC U3974:A1 1.779e-01
*RC U3978:A1 1.779e-01
*RC U4262:A1 1.673e-01
*RC U4952:A2 1.488e-01
*RC U4963:A1 1.779e-01
*RC U4968:A1 2.054e-01
*END

*R_NET input_arr\[35\] 4.278e+01
*DRIVER input_arr\[35\]
*CELL NBUFFX4_RVT
*C2_R1_C1 2.139e+01 9.968e-01 2.139e+01 
*LOADS
*RC U2743:A3 1.487e-01
*RC U3864:A2 1.409e-01
*RC U3872:A2 1.409e-01
*RC U3877:A2 1.409e-01
*RC U3885:A2 1.409e-01
*RC U3900:A2 1.409e-01
*RC U3920:A2 1.409e-01
*RC U3929:A2 1.409e-01
*RC U3948:A2 1.409e-01
*RC U3955:A2 1.409e-01
*RC U3960:A2 1.409e-01
*RC U3971:A1 1.656e-01
*RC U3972:A4 1.410e-01
*RC U3977:A1 1.434e-01
*RC U3979:A 2.181e-01
*RC U4945:A2 1.409e-01
*RC U4947:A2 1.409e-01
*END

*R_NET input_arr\[34\] 3.861e+01
*DRIVER input_arr\[34\]
*CELL NBUFFX4_RVT
*C2_R1_C1 1.931e+01 8.857e-01 1.931e+01 
*LOADS
*RC U2295:A2 1.330e-01
*RC U2316:A2 1.330e-01
*RC U2317:A2 1.330e-01
*RC U2775:A3 1.403e-01
*RC U3867:A2 1.330e-01
*RC U3874:A2 1.330e-01
*RC U3883:A2 1.330e-01
*RC U3886:A2 1.330e-01
*RC U3919:A2 1.330e-01
*RC U3936:A2 1.330e-01
*RC U3954:A2 1.330e-01
*RC U3965:A4 1.022e-01
*RC U3968:A2 1.131e-01
*RC U3971:A2 1.330e-01
*RC U3976:A 2.059e-01
*RC U4942:A2 1.131e-01
*END

*R_NET input_arr\[33\] 5.156e+01
*DRIVER input_arr\[33\]
*CELL NBUFFX4_RVT
*C2_R1_C1 2.578e+01 1.802e+00 2.578e+01 
*LOADS
*RC U2286:A2 1.890e-01
*RC U2315:A4 1.662e-01
*RC U2787:A3 1.994e-01
*RC U3868:A2 1.890e-01
*RC U3871:A3 1.462e-01
*RC U3891:A2 1.608e-01
*RC U3893:A3 1.810e-01
*RC U3899:A3 1.462e-01
*RC U3907:A3 1.810e-01
*RC U3910:A2 1.608e-01
*RC U3918:A3 1.462e-01
*RC U3931:A4 1.662e-01
*RC U3939:A2 1.608e-01
*RC U3941:A3 1.810e-01
*RC U3946:A3 1.462e-01
*RC U3947:A4 1.662e-01
*RC U3952:A3 1.810e-01
*RC U3958:A2 1.608e-01
*RC U3963:A4 1.662e-01
*RC U3970:A2 1.890e-01
*RC U3972:A2 2.035e-01
*RC U3974:A2 1.608e-01
*RC U3981:A 2.922e-01
*END

*R_NET input_arr\[32\] 4.298e+01
*DRIVER input_arr\[32\]
*CELL NBUFFX4_RVT
*C2_R1_C1 2.149e+01 1.385e+00 2.149e+01 
*LOADS
*RC U2791:A3 1.760e-01
*RC U3860:A2 1.705e-01
*RC U3861:A4 1.466e-01
*RC U3871:A4 1.283e-01
*RC U3889:A2 1.668e-01
*RC U3890:A2 1.419e-01
*RC U3899:A4 1.283e-01
*RC U3909:A2 1.419e-01
*RC U3918:A4 1.283e-01
*RC U3923:A2 1.668e-01
*RC U3937:A2 1.668e-01
*RC U3938:A2 1.419e-01
*RC U3946:A4 1.283e-01
*RC U3957:A2 1.419e-01
*RC U3961:A2 1.668e-01
*RC U3965:A3 1.290e-01
*RC U3967:A2 1.419e-01
*RC U3972:A3 1.811e-01
*RC U3973:A2 1.419e-01
*RC U3978:A2 1.419e-01
*END

*R_NET input_arr\[31\] 1.972e+01
*DRIVER input_arr\[31\]
*CELL NBUFFX4_RVT
*C2_R1_C1 9.862e+00 2.704e-01 9.862e+00 
*LOADS
*RC U4034:A1 7.733e-02
*RC U4035:A1 8.228e-02
*RC U4040:A1 9.509e-02
*RC U4046:A1 8.228e-02
*RC U4059:A1 9.509e-02
*RC U4082:A1 9.443e-02
*RC U4089:A2 7.146e-02
*RC U4226:A2 6.871e-02
*END

*R_NET input_arr\[30\] 2.182e+01
*DRIVER input_arr\[30\]
*CELL NBUFFX4_RVT
*C2_R1_C1 1.091e+01 3.244e-01 1.091e+01 
*LOADS
*RC U2318:A2 8.629e-02
*RC U4038:A1 1.015e-01
*RC U4055:A1 1.015e-01
*RC U4066:A2 8.629e-02
*RC U4080:A1 1.015e-01
*RC U4094:A2 6.611e-02
*RC U4108:A1 8.779e-02
*RC U4222:A2 7.331e-02
*RC U4274:A1 8.251e-02
*END

*R_NET input_arr\[29\] 2.464e+01
*DRIVER input_arr\[29\]
*CELL NBUFFX4_RVT
*C2_R1_C1 1.232e+01 3.842e-01 1.232e+01 
*LOADS
*RC U2287:A1 1.082e-01
*RC U4044:A1 1.082e-01
*RC U4051:A2 7.818e-02
*RC U4062:A2 7.818e-02
*RC U4065:A2 9.201e-02
*RC U4083:A1 1.082e-01
*RC U4094:A1 8.396e-02
*RC U4107:A1 1.082e-01
*RC U4109:A1 9.362e-02
*RC U4518:A1 8.799e-02
*END

*R_NET input_arr\[28\] 2.921e+01
*DRIVER input_arr\[28\]
*CELL NBUFFX4_RVT
*C2_R1_C1 1.461e+01 5.226e-01 1.461e+01 
*LOADS
*RC U2296:A1 1.227e-01
*RC U4054:A2 1.044e-01
*RC U4063:A2 8.872e-02
*RC U4069:A2 1.044e-01
*RC U4076:A1 1.227e-01
*RC U4096:A1 1.227e-01
*RC U4111:A2 1.067e-01
*RC U4120:A1 9.526e-02
*RC U4124:A2 9.226e-02
*RC U4132:A1 1.062e-01
*RC U4218:A1 1.062e-01
*RC U4918:A1 9.983e-02
*END

*R_NET input_arr\[27\] 2.910e+01
*DRIVER input_arr\[27\]
*CELL NBUFFX4_RVT
*C2_R1_C1 1.455e+01 5.226e-01 1.455e+01 
*LOADS
*RC U2298:A1 1.227e-01
*RC U4037:A1 1.227e-01
*RC U4041:A2 8.872e-02
*RC U4045:A2 1.044e-01
*RC U4053:A2 1.044e-01
*RC U4075:A2 1.044e-01
*RC U4104:A1 1.227e-01
*RC U4120:A2 8.001e-02
*RC U4133:A1 1.062e-01
*RC U4144:A1 1.227e-01
*RC U4219:A2 8.872e-02
*RC U4594:A1 9.983e-02
*END

*R_NET input_arr\[26\] 3.490e+01
*DRIVER input_arr\[26\]
*CELL NBUFFX4_RVT
*C2_R1_C1 1.745e+01 6.887e-01 1.745e+01 
*LOADS
*RC U4039:A1 1.387e-01
*RC U4042:A1 1.201e-01
*RC U4047:A3 1.021e-01
*RC U4049:A6 1.358e-01
*RC U4060:A1 1.201e-01
*RC U4097:A1 1.387e-01
*RC U4103:A1 1.387e-01
*RC U4113:A2 1.180e-01
*RC U4122:A1 1.387e-01
*RC U4130:A1 1.378e-01
*RC U4140:A2 9.050e-02
*RC U4153:A2 1.043e-01
*RC U4159:A1 1.201e-01
*RC U4611:A1 1.129e-01
*END

*R_NET input_arr\[25\] 3.856e+01
*DRIVER input_arr\[25\]
*CELL NBUFFX4_RVT
*C2_R1_C1 1.928e+01 7.831e-01 1.928e+01 
*LOADS
*RC U4036:A3 1.085e-01
*RC U4047:A1 1.260e-01
*RC U4049:A4 1.339e-01
*RC U4057:A6 1.442e-01
*RC U4061:A1 1.275e-01
*RC U4074:A1 1.473e-01
*RC U4102:A1 1.473e-01
*RC U4114:A1 1.473e-01
*RC U4121:A1 1.473e-01
*RC U4140:A1 1.144e-01
*RC U4141:A1 1.473e-01
*RC U4158:A1 1.473e-01
*RC U4160:A1 1.275e-01
*RC U4219:A1 1.275e-01
*RC U4255:A1 1.199e-01
*END

*R_NET input_arr\[24\] 4.247e+01
*DRIVER input_arr\[24\]
*CELL NBUFFX4_RVT
*C2_R1_C1 2.124e+01 9.968e-01 2.124e+01 
*LOADS
*RC U4036:A1 1.417e-01
*RC U4042:A2 1.198e-01
*RC U4045:A1 1.656e-01
*RC U4057:A4 1.505e-01
*RC U4079:A2 1.409e-01
*RC U4081:A 2.181e-01
*RC U4095:A1 1.656e-01
*RC U4106:A2 1.409e-01
*RC U4134:A2 1.409e-01
*RC U4142:A1 1.656e-01
*RC U4149:A1 1.656e-01
*RC U4162:A2 1.441e-01
*RC U4167:A2 1.081e-01
*RC U4168:A2 1.246e-01
*RC U4178:A1 1.434e-01
*RC U4218:A2 1.198e-01
*RC U4938:A1 1.348e-01
*END

*R_NET input_arr\[23\] 4.538e+01
*DRIVER input_arr\[23\]
*CELL NBUFFX4_RVT
*C2_R1_C1 2.269e+01 1.117e+00 2.269e+01 
*LOADS
*RC U2299:A2 1.492e-01
*RC U4039:A2 1.492e-01
*RC U4041:A1 1.518e-01
*RC U4051:A1 1.518e-01
*RC U4061:A2 1.269e-01
*RC U4069:A1 1.753e-01
*RC U4079:A1 1.753e-01
*RC U4105:A1 1.753e-01
*RC U4111:A1 1.741e-01
*RC U4123:A2 1.492e-01
*RC U4124:A3 1.489e-01
*RC U4124:A1 1.314e-01
*RC U4151:A1 1.753e-01
*RC U4157:A1 1.753e-01
*RC U4167:A1 1.362e-01
*RC U4179:A1 1.518e-01
*RC U4183:A1 1.753e-01
*RC U4479:A1 1.427e-01
*END

*R_NET input_arr\[22\] 4.761e+01
*DRIVER input_arr\[22\]
*CELL NBUFFX4_RVT
*C2_R1_C1 2.380e+01 1.385e+00 2.380e+01 
*LOADS