*SPEF "IEEE 1481-1999"
*DESIGN "sigmoid_unit"
*DATE "Thu Dec  5 11:20:58 2024"
*VENDOR "SYNOPSYS INC"
*PROGRAM "Synopsys Design Compiler cmos"
*VERSION "V-2023.12-SP5"
*DESIGN_FLOW "SYNTHESIS"
*DIVIDER /
*DELIMITER :
*BUS_DELIMITER []
*T_UNIT 1.0 NS
*C_UNIT 0.0010 PF
*R_UNIT 1000.0 KOHM
*L_UNIT 1.0 HENRY

*PORTS

x\[15\] I *L 0.000e+00 *S 1.016e-02 1.431e-02 *D NBUFFX4_RVT 
x\[14\] I *L 0.000e+00 *S 7.351e-03 1.358e-02 *D NBUFFX4_RVT 
x\[13\] I *L 0.000e+00 *S 8.600e-03 1.388e-02 *D NBUFFX4_RVT 
x\[12\] I *L 0.000e+00 *S 1.396e-02 1.543e-02 *D NBUFFX4_RVT 
x\[11\] I *L 0.000e+00 *S 9.276e-03 1.406e-02 *D NBUFFX4_RVT 
x\[10\] I *L 0.000e+00 *S 9.033e-03 1.399e-02 *D NBUFFX4_RVT 
x\[9\] I *L 0.000e+00 *S 1.080e-02 1.450e-02 *D NBUFFX4_RVT 
x\[8\] I *L 0.000e+00 *S 1.534e-03 2.803e-02 *D NBUFFX4_RVT 
x\[7\] I *L 0.000e+00 *S 0.000e+00 4.219e-02 *D NBUFFX4_RVT 
x\[6\] I *L 0.000e+00 *S 1.152e-02 2.006e-02 *D NBUFFX4_RVT 
x\[5\] I *L 0.000e+00 *S 1.170e-02 1.991e-02 *D NBUFFX4_RVT 
x\[4\] I *L 0.000e+00 *S 1.039e-02 1.438e-02 *D NBUFFX4_RVT 
x\[3\] I *L 0.000e+00 *S 0.000e+00 3.368e-02 *D NBUFFX4_RVT 
x\[2\] I *L 0.000e+00 *S 4.009e-03 2.605e-02 *D NBUFFX4_RVT 
x\[1\] I *L 0.000e+00 *S 1.635e-02 1.613e-02 *D NBUFFX4_RVT 
x\[0\] I *L 0.000e+00 *S 1.394e-02 1.542e-02 *D NBUFFX4_RVT 
y\[15\] O *L 3.000e-01 *S 4.661e-03 5.289e-03 
y\[14\] O *L 3.000e-01 *S 1.182e-02 1.358e-02 
y\[13\] O *L 3.000e-01 *S 4.661e-03 5.289e-03 
y\[12\] O *L 3.000e-01 *S 4.661e-03 5.289e-03 
y\[11\] O *L 3.000e-01 *S 4.661e-03 5.289e-03 
y\[10\] O *L 3.000e-01 *S 4.661e-03 5.289e-03 
y\[9\] O *L 3.000e-01 *S 4.661e-03 5.289e-03 
y\[8\] O *L 3.000e-01 *S 2.110e-03 2.479e-03 
y\[7\] O *L 3.000e-01 *S 2.110e-03 2.479e-03 
y\[6\] O *L 3.000e-01 *S 6.243e-03 7.118e-03 
y\[5\] O *L 3.000e-01 *S 2.198e-03 2.568e-03 
y\[4\] O *L 3.000e-01 *S 2.198e-03 2.568e-03 
y\[3\] O *L 3.000e-01 *S 2.198e-03 2.568e-03 
y\[2\] O *L 3.000e-01 *S 2.198e-03 2.568e-03 
y\[1\] O *L 3.000e-01 *S 2.112e-03 2.419e-03 
y\[0\] O *L 3.000e-01 *S 2.110e-03 2.479e-03 

*R_NET x\[14\] 1.053e+01
*DRIVER x\[14\]
*CELL NBUFFX4_RVT
*C2_R1_C1 5.266e+00 1.158e-01 5.266e+00 
*LOADS
*RC U1720:A1 8.740e-02
*RC U1723:A1 7.089e-02
*RC U1783:A1 8.059e-02
*RC U2198:A1 6.595e-02
*END

*R_NET x\[13\] 1.247e+01
*DRIVER x\[13\]
*CELL NBUFFX4_RVT
*C2_R1_C1 6.234e+00 1.542e-01 6.234e+00 
*LOADS
*RC U1720:A2 7.923e-02
*RC U1723:A2 7.488e-02
*RC U1783:A2 7.519e-02
*RC U2194:A3 7.760e-02
*RC U2200:A3 7.760e-02
*END

*R_NET x\[12\] 2.188e+01
*DRIVER x\[12\]
*CELL NBUFFX4_RVT
*C2_R1_C1 1.094e+01 3.540e-01 1.094e+01 
*LOADS
*RC U1671:A 1.456e-01
*RC U1720:A3 1.020e-01
*RC U1723:A3 1.020e-01
*RC U1783:A3 8.981e-02
*RC U1806:A3 7.235e-02
*RC U1836:A1 9.548e-02
*RC U2124:A4 7.200e-02
*RC U2198:A3 9.905e-02
*RC U2214:A1 8.252e-02
*END

*R_NET x\[11\] 1.351e+01
*DRIVER x\[11\]
*CELL NBUFFX4_RVT
*C2_R1_C1 6.753e+00 1.969e-01 6.753e+00 
*LOADS
*RC U1597:A 8.984e-02
*RC U1719:A3 6.506e-02
*RC U1805:A2 7.823e-02
*RC U1836:A2 6.642e-02
*RC U2186:A1 6.878e-02
*RC U2200:A1 7.479e-02
*END

*R_NET x\[10\] 1.316e+01
*DRIVER x\[10\]
*CELL NBUFFX4_RVT
*C2_R1_C1 6.580e+00 1.542e-01 6.580e+00 
*LOADS
*RC U1664:A 1.141e-01
*RC U1719:A2 6.426e-02
*RC U1805:A1 8.649e-02
*RC U2177:A1 6.464e-02
*RC U2216:A1 7.635e-02
*END

*R_NET x\[9\] 1.622e+01
*DRIVER x\[9\]
*CELL NBUFFX4_RVT
*C2_R1_C1 8.110e+00 2.441e-01 8.110e+00 
*LOADS
*RC U1596:A 1.291e-01
*RC U1719:A1 8.354e-02
*RC U1806:A2 6.364e-02
*RC U2124:A2 6.364e-02
*RC U2166:A1 7.312e-02
*RC U2188:A1 7.312e-02
*RC U2215:A1 7.951e-02
*END

*R_NET x\[8\] 4.195e+01
*DRIVER x\[8\]
*CELL NBUFFX4_RVT
*C2_R1_C1 2.097e+01 1.056e+00 2.097e+01 
*LOADS
*RC U1996:A2 1.333e-01
*RC U1590:A 2.302e-01
*RC U1724:A2 1.261e-01
*RC U1806:A1 1.354e-01
*RC U1817:A2 1.484e-01
*RC U1876:A1 1.880e-01
*RC U1907:A2 1.261e-01
*RC U1912:A1 1.734e-01
*RC U1966:A1 1.880e-01
*RC U1997:A2 1.518e-01
*RC U2085:A1 1.510e-01
*RC U2109:A1 1.734e-01
*RC U2116:A1 1.510e-01
*RC U2155:A1 1.306e-01
*RC U2175:A1 1.306e-01
*RC U2187:A1 1.419e-01
*RC U2218:A2 1.261e-01
*END

*R_NET x\[7\] 6.048e+01
*DRIVER x\[7\]
*CELL NBUFFX4_RVT
*C2_R1_C1 3.024e+01 2.025e+00 3.024e+01 
*LOADS
*RC U1826:A1 2.409e-01
*RC U1844:A3 1.682e-01
*RC U1974:A2 1.717e-01
*RC U1800:A2 1.717e-01
*RC U2143:A1 1.778e-01
*RC U2168:A1 1.778e-01
*RC U2124:A1 1.844e-01
*RC U2174:A1 1.932e-01
*RC U2189:A1 2.056e-01
*RC U1724:A1 2.056e-01
*RC U1785:A1 2.056e-01
*RC U1937:A 2.319e-01
*RC U1995:A2 2.021e-01
*RC U1610:A 3.131e-01
*RC U2090:A1 2.557e-01
*RC U1838:A2 2.177e-01
*RC U2023:A2 2.066e-01
*RC U1813:A1 2.056e-01
*RC U1807:A1 2.056e-01
*RC U1848:A2 2.066e-01
*RC U1814:A1 2.557e-01
*RC U1791:A1 2.557e-01
*RC U1758:A3 2.075e-01
*RC U1970:A1 2.375e-01
*END

*R_NET x\[6\] 3.147e+01
*DRIVER x\[6\]
*CELL NBUFFX4_RVT
*C2_R1_C1 1.573e+01 6.463e-01 1.573e+01 
*LOADS
*RC U1995:A1 1.449e-01
*RC U1707:A 1.312e-01
*RC U1759:A2 1.008e-01
*RC U1766:A1 1.396e-01
*RC U1771:A3 1.176e-01
*RC U1771:A1 1.233e-01
*RC U1840:A2 1.187e-01
*RC U1926:A1 1.416e-01
*RC U1994:A2 1.038e-01
*RC U2082:A1 1.044e-01
*RC U2157:A1 1.044e-01
*RC U2167:A1 1.135e-01
*RC U2178:A1 1.208e-01
*END

*R_NET x\[5\] 3.171e+01
*DRIVER x\[5\]
*CELL NBUFFX4_RVT
*C2_R1_C1 1.585e+01 4.871e-01 1.585e+01 
*LOADS
*RC U1705:A 1.168e-01
*RC U1734:A1 1.338e-01
*RC U1742:A1 1.234e-01
*RC U1753:A1 1.338e-01
*RC U1787:A1 1.234e-01
*RC U1799:A1 1.338e-01
*RC U1904:A1 1.338e-01
*RC U2023:A1 1.234e-01
*RC U2102:A1 1.338e-01
*RC U2112:A2 1.139e-01
*RC U2130:A1 1.338e-01
*END

*R_NET x\[4\] 1.572e+01
*DRIVER x\[4\]
*CELL NBUFFX4_RVT
*C2_R1_C1 7.859e+00 1.969e-01 7.859e+00 
*LOADS
*RC U1706:A 8.645e-02
*RC U1865:A1 9.138e-02
*RC U2153:A1 7.959e-02
*RC U1748:A1 7.959e-02
*RC U1875:A1 7.959e-02
*RC U2125:A1 9.910e-02
*END

*R_NET x\[3\] 4.946e+01
*DRIVER x\[3\]
*CELL NBUFFX4_RVT
*C2_R1_C1 2.473e+01 1.312e+00 2.473e+01 
*LOADS
*RC U1784:A1 1.649e-01
*RC U1673:A 2.561e-01
*RC U1708:A 2.561e-01
*RC U1729:A2 1.689e-01
*RC U1738:A1 1.711e-01
*RC U1748:A2 1.403e-01
*RC U1765:A5 1.640e-01
*RC U1780:A1 1.681e-01
*RC U1788:A3 1.428e-01
*RC U1811:A1 1.681e-01
*RC U1820:A2 1.780e-01
*RC U1924:A1 2.091e-01
*RC U1926:A2 2.251e-01
*RC U2012:A2 1.780e-01
*RC U2048:A1 1.453e-01
*RC U2070:A1 1.453e-01
*RC U2083:A1 1.579e-01
*RC U2112:A1 2.091e-01
*RC U2141:A1 1.681e-01
*END

*R_NET x\[2\] 3.934e+01
*DRIVER x\[2\]
*CELL NBUFFX4_RVT
*C2_R1_C1 1.967e+01 9.411e-01 1.967e+01 
*LOADS
*RC U1621:A 2.180e-01
*RC U1729:A1 1.641e-01
*RC U1740:A2 1.437e-01
*RC U1743:A2 1.194e-01
*RC U1753:A2 1.514e-01
*RC U1765:A3 1.402e-01
*RC U1765:A1 1.236e-01
*RC U1780:A2 1.194e-01
*RC U1788:A2 1.478e-01
*RC U1796:A1 1.430e-01
*RC U1820:A3 1.527e-01
*RC U1837:A1 1.456e-01
*RC U1863:A2 1.437e-01
*RC U2047:A1 1.344e-01
*RC U2057:A1 1.236e-01
*RC U2080:A1 1.430e-01
*END

*R_NET x\[1\] 2.645e+01
*DRIVER x\[1\]
*CELL NBUFFX4_RVT
*C2_R1_C1 1.322e+01 4.175e-01 1.322e+01 
*LOADS
*RC U1616:A 1.546e-01
*RC U1740:A1 1.164e-01
*RC U1743:A1 1.014e-01
*RC U1765:A2 8.799e-02
*RC U1792:A1 1.014e-01
*RC U1820:A1 1.262e-01
*RC U1863:A1 1.164e-01
*RC U2051:A1 1.014e-01
*RC U2056:A1 9.524e-02
*RC U2068:A1 1.034e-01
*END

*R_NET x\[0\] 2.188e+01
*DRIVER x\[0\]
*CELL NBUFFX4_RVT
*C2_R1_C1 1.094e+01 3.540e-01 1.094e+01 
*LOADS
*RC U1638:A 1.456e-01
*RC U1740:A3 8.981e-02
*RC U1765:A4 8.237e-02
*RC U1792:A2 7.968e-02
*RC U1820:A4 9.387e-02
*RC U2053:A1 9.548e-02
*RC U2059:A1 9.432e-02
*RC U2064:A1 8.972e-02
*RC U2067:A1 8.972e-02
*END

*R_NET y\[14\] 3.042e+00
*DRIVER U2195:Y
*CELL AND3X1_RVT
*C2_R1_C1 1.521e+00 5.002e-02 1.521e+00 
*LOADS
*RC U1681:A 6.844e-02
*RC y\[14\] 7.627e-03
*END

*R_NET y\[8\] 3.043e-01
*DRIVER U2199:Y
*CELL AND3X1_RVT
*C2_R1_C1 1.522e-01 2.192e-02 1.522e-01 
*LOADS
*RC y\[8\] 6.673e-03
*END

*R_NET y\[7\] 3.043e-01
*DRIVER U2201:Y
*CELL AND3X1_RVT
*C2_R1_C1 1.522e-01 2.192e-02 1.522e-01 
*LOADS
*RC y\[7\] 6.673e-03
*END

*R_NET y\[6\] 3.043e-01
*DRIVER U2223:Y
*CELL NAND2X0_RVT
*C2_R1_C1 1.522e-01 2.192e-02 1.522e-01 
*LOADS
*RC y\[6\] 6.673e-03
*END

*R_NET y\[5\] 3.043e-01
*DRIVER U2203:Y
*CELL OA221X1_RVT
*C2_R1_C1 1.522e-01 2.192e-02 1.522e-01 
*LOADS
*RC y\[5\] 6.673e-03
*END

*R_NET y\[4\] 3.043e-01
*DRIVER U2205:Y
*CELL OA221X1_RVT
*C2_R1_C1 1.522e-01 2.192e-02 1.522e-01 
*LOADS
*RC y\[4\] 6.673e-03
*END

*R_NET y\[3\] 3.043e-01
*DRIVER U2207:Y
*CELL OA221X1_RVT
*C2_R1_C1 1.522e-01 2.192e-02 1.522e-01 
*LOADS
*RC y\[3\] 6.673e-03
*END

*R_NET y\[2\] 3.043e-01
*DRIVER U2209:Y
*CELL OA221X1_RVT
*C2_R1_C1 1.522e-01 2.192e-02 1.522e-01 
*LOADS
*RC y\[2\] 6.673e-03
*END

*R_NET y\[1\] 3.043e-01
*DRIVER U2212:Y
*CELL AND2X1_RVT
*C2_R1_C1 1.522e-01 2.192e-02 1.522e-01 
*LOADS
*RC y\[1\] 6.673e-03
*END

*R_NET y\[0\] 3.043e-01
*DRIVER U2197:Y
*CELL AND3X1_RVT
*C2_R1_C1 1.522e-01 2.192e-02 1.522e-01 
*LOADS
*RC y\[0\] 6.673e-03
*END

*R_NET x\[15\] 1.523e+01
*DRIVER x\[15\]
*CELL NBUFFX4_RVT
*C2_R1_C1 7.614e+00 1.542e-01 7.614e+00 
*LOADS
*RC U1577:A 1.141e-01
*RC U1649:A 1.141e-01
*RC U1893:A3 9.241e-02
*RC U1909:A3 7.867e-02
*RC U2194:A1 7.029e-02
*END

*R_NET n1556 2.338e+01
*DRIVER U1662:Y
*CELL INVX1_RVT
*C2_R1_C1 1.169e+01 3.540e-01 1.169e+01 
*LOADS
*RC U1587:A 1.456e-01
*RC U2167:A3 9.905e-02
*RC U1777:A1 9.548e-02
*RC U1814:A3 1.020e-01
*RC U1799:A4 9.387e-02
*RC U1791:A4 9.387e-02
*RC U1802:A4 9.387e-02
*RC U1924:A4 9.387e-02
*RC U1904:A3 1.020e-01
*END

*R_NET n1557 2.161e+01
*DRIVER U1611:Y
*CELL INVX1_RVT
*C2_R1_C1 1.081e+01 4.175e-01 1.081e+01 
*LOADS
*RC U1787:A3 9.533e-02
*RC U2142:A2 8.458e-02
*RC U2082:A3 9.938e-02
*RC U1925:A2 8.458e-02
*RC U1736:A2 8.458e-02
*RC U1731:A2 8.458e-02
*RC U1901:A3 8.285e-02
*RC U1763:A3 9.938e-02
*RC U1763:A1 8.759e-02
*RC U2157:A3 9.938e-02
*END

*R_NET n1558 5.415e+01
*DRIVER U1706:Y
*CELL NBUFFX2_RVT
*C2_R1_C1 2.708e+01 1.455e+00 2.708e+01 
*LOADS
*RC U1592:A 2.698e-01
*RC U1658:A 2.698e-01
*RC U1697:A1 2.075e-01
*RC U1864:A1 2.203e-01
*RC U1829:A1 2.203e-01
*RC U1773:A1 2.203e-01
*RC U2144:A1 1.664e-01
*RC U1840:A1 2.046e-01
*RC U1994:A1 1.748e-01
*RC U2084:A1 1.531e-01
*RC U2003:A1 2.203e-01
*RC U1974:A1 1.771e-01
*RC U1831:A1 1.771e-01
*RC U1732:A1 1.771e-01
*RC U1738:A3 1.787e-01
*RC U2055:A1 1.531e-01
*RC U1940:A1 1.771e-01
*RC U1844:A1 1.748e-01
*RC U1810:A1 1.771e-01
*RC U1910:A1 2.203e-01
*END

*R_NET n1559 1.984e+01
*DRIVER U1589:Y
*CELL INVX0_RVT
*C2_R1_C1 9.918e+00 2.441e-01 9.918e+00 
*LOADS
*RC U1819:A1 9.783e-02
*RC U1935:A1 1.054e-01
*RC U1824:A1 1.054e-01
*RC U1791:A3 9.038e-02
*RC U1877:A3 9.038e-02
*RC U1880:A1 9.715e-02
*RC U1949:A1 1.054e-01
*END

*R_NET n1560 1.859e+01
*DRIVER U1588:Y
*CELL INVX0_RVT
*C2_R1_C1 9.295e+00 2.964e-01 9.295e+00 
*LOADS
*RC U1994:A3 7.349e-02
*RC U1785:A2 7.503e-02
*RC U1827:A2 9.522e-02
*RC U1927:A2 7.503e-02
*RC U1950:A2 9.522e-02
*RC U1828:A2 8.837e-02
*RC U1832:A2 9.037e-02
*RC U2003:A3 9.603e-02
*END

*R_NET n1561 1.902e+01
*DRIVER U1580:Y
*CELL INVX0_RVT
*C2_R1_C1 9.511e+00 2.964e-01 9.511e+00 
*LOADS
*RC U2102:A2 9.522e-02
*RC U2090:A4 8.839e-02
*RC U1956:A3 8.457e-02
*RC U1802:A2 9.522e-02
*RC U1835:A2 7.503e-02
*RC U1903:A3 9.603e-02
*RC U1904:A2 9.522e-02
*RC U2006:A2 7.503e-02
*END

*R_NET n1562 2.632e+01
*DRIVER U1595:Y
*CELL INVX1_RVT
*C2_R1_C1 1.316e+01 4.175e-01 1.316e+01 
*LOADS
*RC U1591:A 1.546e-01
*RC U1861:A3 1.083e-01
*RC U1846:A3 1.023e-01
*RC U1896:A4 9.964e-02
*RC U1862:A2 1.019e-01
*RC U1944:A2 1.019e-01
*RC U1827:A3 1.083e-01
*RC U1838:A3 1.083e-01
*RC U2156:A3 1.051e-01
*RC U1961:A2 1.088e-01
*END

*R_NET n1563 2.692e+01
*DRIVER U1593:Y
*CELL INVX2_RVT
*C2_R1_C1 1.346e+01 5.632e-01 1.346e+01 
*LOADS
*RC U1855:A2 1.120e-01
*RC U1756:A5 1.112e-01
*RC U1763:A4 9.835e-02
*RC U2081:A2 9.514e-02
*RC U1736:A1 1.140e-01
*RC U1757:A2 9.514e-02
*RC U1898:A2 9.514e-02
*RC U1993:A3 1.118e-01
*RC U1901:A2 9.795e-02
*RC U1883:A3 1.072e-01
*RC U2145:A3 1.118e-01
*RC U1823:A1 1.140e-01
*END

*R_NET n1564 1.139e+01
*DRIVER U1601:Y
*CELL INVX1_RVT
*C2_R1_C1 5.693e+00 1.542e-01 5.693e+00 
*LOADS
*RC U2144:A2 7.023e-02
*RC U2156:A2 7.023e-02
*RC U2167:A2 7.023e-02
*RC U2174:A2 7.023e-02
*RC U2187:A2 7.023e-02
*END

*R_NET n1565 4.835e+00
*DRIVER U1742:Y
*CELL NAND3X0_RVT
*C2_R1_C1 2.418e+00 5.002e-02 2.418e+00 
*LOADS
*RC U1746:A3 5.904e-02
*RC U1746:A1 6.188e-02
*END

*R_NET n1566 2.364e+00
*DRIVER U1746:Y
*CELL AO221X1_RVT
*C2_R1_C1 1.182e+00 2.192e-02 1.182e+00 
*LOADS
*RC U1747:A5 5.184e-02
*END

*R_NET n1567 2.091e+00
*DRIVER U1739:Y
*CELL NAND4X0_RVT
*C2_R1_C1 1.045e+00 2.192e-02 1.045e+00 
*LOADS
*RC U1747:A4 4.583e-02
*END

*R_NET n1568 2.104e+00
*DRIVER U1734:Y
*CELL NAND4X0_RVT
*C2_R1_C1 1.052e+00 2.192e-02 1.052e+00 
*LOADS
*RC U1747:A2 4.612e-02
*END

*R_NET n1569 7.329e+00
*DRIVER U1671:Y
*CELL INVX1_RVT
*C2_R1_C1 3.665e+00 8.117e-02 3.665e+00 
*LOADS
*RC U2214:A3 6.433e-02
*RC U1751:A4 6.450e-02
*RC U1749:A2 6.949e-02
*END

*R_NET n1570 2.567e+00
*DRIVER U1620:Y
*CELL INVX1_RVT
*C2_R1_C1 1.284e+00 2.192e-02 1.284e+00 
*LOADS
*RC U1751:A2 5.628e-02
*END

*R_NET n1571 5.353e+00
*DRIVER U1722:Y
*CELL NAND3X0_RVT
*C2_R1_C1 2.677e+00 5.002e-02 2.677e+00 
*LOADS
*RC U1723:A4 7.268e-02
*RC U1752:A3 6.120e-02
*END

*R_NET n1572 2.155e+00
*DRIVER U1751:Y
*CELL NAND4X0_RVT
*C2_R1_C1 1.077e+00 2.192e-02 1.077e+00 
*LOADS
*RC U1752:A2 4.724e-02
*END

*R_NET n1573 2.468e+00
*DRIVER U1749:Y
*CELL NAND4X0_RVT
*C2_R1_C1 1.234e+00 2.192e-02 1.234e+00 
*LOADS
*RC U1752:A1 5.411e-02
*END

*R_NET n1574 2.446e+00
*DRIVER U1717:Y
*CELL OR2X1_RVT
*C2_R1_C1 1.223e+00 2.192e-02 1.223e+00 
*LOADS
*RC U1764:A3 5.364e-02
*END

*R_NET n1575 1.409e+01
*DRIVER U1669:Y
*CELL INVX1_RVT
*C2_R1_C1 7.046e+00 1.969e-01 7.046e+00 
*LOADS
*RC U1966:A4 7.825e-02
*RC U1943:A2 6.642e-02
*RC U1942:A4 8.350e-02
*RC U1933:A3 7.486e-02
*RC U1768:A4 7.825e-02
*RC U1764:A1 8.105e-02
*END

*R_NET n1576 2.436e+00
*DRIVER U1766:Y
*CELL AND2X1_RVT
*C2_R1_C1 1.218e+00 2.192e-02 1.218e+00 
*LOADS
*RC U1767:A2 5.341e-02
*END

*R_NET n1577 6.034e+00
*DRIVER U1763:Y
*CELL OA221X1_RVT
*C2_R1_C1 3.017e+00 5.002e-02 3.017e+00 
*LOADS
*RC U1717:A2 8.128e-02
*RC U1767:A1 6.962e-02
*END

*R_NET n1578 2.589e+00
*DRIVER U1661:Y
*CELL INVX1_RVT
*C2_R1_C1 1.295e+00 2.192e-02 1.295e+00 
*LOADS
*RC U1768:A3 5.676e-02
*END

*R_NET n1579 7.527e+00
*DRIVER U1721:Y
*CELL NAND2X0_RVT
*C2_R1_C1 3.764e+00 8.117e-02 3.764e+00 
*LOADS
*RC U1579:A 7.406e-02
*RC U1727:A4 5.659e-02
*RC U1771:A5 7.301e-02
*END

*R_NET n1580 4.322e+00
*DRIVER U1771:Y
*CELL AO221X1_RVT
*C2_R1_C1 2.161e+00 5.002e-02 2.161e+00 
*LOADS
*RC U1772:A2 5.059e-02
*RC U1774:A4 5.751e-02
*END

*R_NET n1581 2.675e+00
*DRIVER U1773:Y
*CELL NAND4X0_RVT
*C2_R1_C1 1.338e+00 2.192e-02 1.338e+00 
*LOADS
*RC U1774:A3 5.865e-02
*END

*R_NET n1582 2.096e+00
*DRIVER U1772:Y
*CELL NAND2X0_RVT
*C2_R1_C1 1.048e+00 2.192e-02 1.048e+00 
*LOADS
*RC U1774:A2 4.594e-02
*END

*R_NET n1583 8.684e+00
*DRIVER U1761:Y
*CELL NAND3X0_RVT
*C2_R1_C1 4.342e+00 8.117e-02 4.342e+00 
*LOADS
*RC U1661:A 1.001e-01
*RC U1717:A1 7.693e-02
*RC U1774:A1 5.792e-02
*END

*R_NET n1584 2.393e+00
*DRIVER U1614:Y
*CELL INVX1_RVT
*C2_R1_C1 1.196e+00 2.192e-02 1.196e+00 
*LOADS
*RC U1775:A1 5.246e-02
*END

*R_NET n1585 2.446e+00
*DRIVER U1612:Y
*CELL INVX1_RVT
*C2_R1_C1 1.223e+00 2.192e-02 1.223e+00 
*LOADS
*RC U1996:A1 5.363e-02
*END

*R_NET n1586 2.446e+00
*DRIVER U1716:Y
*CELL OR2X1_RVT
*C2_R1_C1 1.223e+00 2.192e-02 1.223e+00 
*LOADS
*RC U1786:A3 5.364e-02
*END

*R_NET n1587 2.468e+00
*DRIVER U1777:Y
*CELL NAND2X0_RVT
*C2_R1_C1 1.234e+00 2.192e-02 1.234e+00 
*LOADS
*RC U1786:A1 5.411e-02
*END

*R_NET n1588 6.811e+00
*DRIVER U1743:Y
*CELL NAND2X0_RVT
*C2_R1_C1 3.405e+00 8.117e-02 3.405e+00 
*LOADS
*RC U1744:A2 5.474e-02
*RC U1762:A2 6.783e-02
*RC U1789:A3 6.171e-02
*END

*R_NET n1589 2.280e+00
*DRIVER U1792:Y
*CELL NAND2X0_RVT
*C2_R1_C1 1.140e+00 2.192e-02 1.140e+00 
*LOADS
*RC U1793:A3 4.998e-02
*END

*R_NET n1590 2.675e+00
*DRIVER U1791:Y
*CELL NAND4X0_RVT
*C2_R1_C1 1.338e+00 2.192e-02 1.338e+00 
*LOADS
*RC U1795:A3 5.865e-02
*END

*R_NET n1591 2.096e+00
*DRIVER U1790:Y
*CELL OR3X2_RVT
*C2_R1_C1 1.048e+00 2.192e-02 1.048e+00 
*LOADS
*RC U1795:A2 4.594e-02
*END

*R_NET n1592 2.589e+00
*DRIVER U1801:Y
*CELL AND2X1_RVT
*C2_R1_C1 1.295e+00 2.192e-02 1.295e+00 
*LOADS
*RC U1802:A3 5.676e-02
*END

*R_NET n1593 5.063e+00
*DRIVER U1787:Y
*CELL NAND3X0_RVT
*C2_R1_C1 2.531e+00 5.002e-02 2.531e+00 
*LOADS
*RC U1795:A1 5.353e-02
*RC U1808:A3 7.309e-02
*END

*R_NET n1594 2.022e+00
*DRIVER U1812:Y
*CELL NAND3X0_RVT
*C2_R1_C1 1.011e+00 2.192e-02 1.011e+00 
*LOADS
*RC U1813:A2 4.433e-02
*END

*R_NET n1595 2.394e+00
*DRIVER U1811:Y
*CELL NAND2X0_RVT
*C2_R1_C1 1.197e+00 2.192e-02 1.197e+00 
*LOADS
*RC U1815:A1 5.249e-02
*END

*R_NET n1596 2.589e+00
*DRIVER U1602:Y
*CELL INVX1_RVT
*C2_R1_C1 1.295e+00 2.192e-02 1.295e+00 
*LOADS
*RC U1821:A3 5.676e-02
*END

*R_NET n1597 2.567e+00
*DRIVER U1819:Y
*CELL AND2X1_RVT
*C2_R1_C1 1.284e+00 2.192e-02 1.284e+00 
*LOADS
*RC U1821:A2 5.628e-02
*END

*R_NET n1598 2.393e+00
*DRIVER U1821:Y
*CELL NAND4X0_RVT
*C2_R1_C1 1.196e+00 2.192e-02 1.196e+00 
*LOADS
*RC U1934:A1 5.246e-02
*END

*R_NET n1599 2.082e+00
*DRIVER U1818:Y
*CELL NAND4X0_RVT
*C2_R1_C1 1.041e+00 2.192e-02 1.041e+00 
*LOADS
*RC U1934:A2 4.564e-02
*END

*R_NET n1600 2.567e+00
*DRIVER U1584:Y
*CELL INVX0_RVT
*C2_R1_C1 1.284e+00 2.192e-02 1.284e+00 
*LOADS
*RC U1824:A2 5.628e-02
*END

*R_NET n1601 4.866e+00
*DRIVER U1781:Y
*CELL NAND2X0_RVT
*C2_R1_C1 2.433e+00 5.002e-02 2.433e+00 
*LOADS
*RC U1936:A1 7.110e-02
*RC U1782:A2 5.059e-02
*END

*R_NET n1602 3.249e+00
*DRIVER U1824:Y
*CELL NAND4X0_RVT
*C2_R1_C1 1.625e+00 2.192e-02 1.625e+00 
*LOADS
*RC U1936:A2 7.124e-02
*END

*R_NET n1605 8.148e+00
*DRIVER U1729:Y
*CELL NAND3X0_RVT
*C2_R1_C1 4.074e+00 8.117e-02 4.074e+00 
*LOADS
*RC U1624:A 1.001e-01
*RC U1730:A2 5.474e-02
*RC U1772:A1 6.561e-02
*END

*R_NET n1606 1.981e+00
*DRIVER U1829:Y
*CELL NAND4X0_RVT
*C2_R1_C1 9.903e-01 2.192e-02 9.903e-01 
*LOADS
*RC U1830:A3 4.342e-02
*END

*R_NET n1607 2.082e+00
*DRIVER U1827:Y
*CELL NAND4X0_RVT
*C2_R1_C1 1.041e+00 2.192e-02 1.041e+00 
*LOADS
*RC U1830:A2 4.564e-02
*END

*R_NET n1608 5.402e+00
*DRIVER U1817:Y
*CELL AND2X1_RVT
*C2_R1_C1 2.701e+00 5.002e-02 2.701e+00 
*LOADS
*RC U1818:A4 5.961e-02
*RC U1838:A1 7.550e-02
*END

*R_NET n1609 2.299e+00
*DRIVER U1838:Y
*CELL NAND4X0_RVT
*C2_R1_C1 1.149e+00 2.192e-02 1.149e+00 
*LOADS
*RC U1839:A4 5.040e-02
*END

*R_NET n1610 2.675e+00
*DRIVER U1836:Y
*CELL NAND2X0_RVT
*C2_R1_C1 1.338e+00 2.192e-02 1.338e+00 
*LOADS
*RC U1839:A3 5.865e-02
*END

*R_NET n1611 2.096e+00
*DRIVER U1835:Y
*CELL NAND2X0_RVT
*C2_R1_C1 1.048e+00 2.192e-02 1.048e+00 
*LOADS
*RC U1839:A2 4.594e-02
*END

*R_NET n1612 2.383e+00
*DRIVER U1840:Y
*CELL AND2X1_RVT
*C2_R1_C1 1.191e+00 2.192e-02 1.191e+00 
*LOADS
*RC U1841:A4 5.224e-02
*END

*R_NET n1613 3.018e+00
*DRIVER U1573:Y
*CELL INVX0_RVT
*C2_R1_C1 1.509e+00 2.192e-02 1.509e+00 
*LOADS
*RC U1851:A1 6.617e-02
*END

*R_NET n1614 2.364e+00
*DRIVER U1851:Y
*CELL NAND4X0_RVT
*C2_R1_C1 1.182e+00 2.192e-02 1.182e+00 
*LOADS
*RC U1852:A5 5.184e-02
*END

*R_NET n1615 2.091e+00
*DRIVER U1848:Y
*CELL NAND3X0_RVT
*C2_R1_C1 1.045e+00 2.192e-02 1.045e+00 
*LOADS
*RC U1852:A4 4.583e-02
*END

*R_NET n1616 2.104e+00
*DRIVER U1845:Y
*CELL NAND3X0_RVT
*C2_R1_C1 1.052e+00 2.192e-02 1.052e+00 
*LOADS
*RC U1852:A2 4.612e-02
*END

*R_NET n1617 2.514e+00
*DRIVER U1855:Y
*CELL AND2X1_RVT
*C2_R1_C1 1.257e+00 2.192e-02 1.257e+00 
*LOADS
*RC U1856:A3 5.512e-02
*END

*R_NET n1618 4.846e+00
*DRIVER U1582:Y
*CELL INVX0_RVT
*C2_R1_C1 2.423e+00 5.002e-02 2.423e+00 
*LOADS
*RC U1818:A2 6.422e-02
*RC U1856:A1 5.697e-02
*END

*R_NET n1619 2.280e+00
*DRIVER U1856:Y
*CELL AO22X1_RVT
*C2_R1_C1 1.140e+00 2.192e-02 1.140e+00 
*LOADS
*RC U1857:A3 4.998e-02
*END

*R_NET n1620 2.082e+00
*DRIVER U1854:Y
*CELL NAND4X0_RVT
*C2_R1_C1 1.041e+00 2.192e-02 1.041e+00 
*LOADS
*RC U1860:A2 4.564e-02
*END

*R_NET n1621 6.542e+00
*DRIVER U1800:Y
*CELL NAND2X0_RVT
*C2_R1_C1 3.271e+00 5.002e-02 3.271e+00 
*LOADS
*RC U1648:A 9.252e-02
*RC U1700:A1 7.110e-02
*END

*R_NET n1624 2.567e+00
*DRIVER U1637:Y
*CELL INVX1_RVT
*C2_R1_C1 1.284e+00 2.192e-02 1.284e+00 
*LOADS
*RC U1864:A2 5.628e-02
*END

*R_NET n1625 3.249e+00
*DRIVER U1866:Y
*CELL NAND2X0_RVT
*C2_R1_C1 1.625e+00 2.192e-02 1.625e+00 
*LOADS
*RC U1711:A2 7.124e-02
*END

*R_NET n1626 2.446e+00
*DRIVER U1711:Y
*CELL OR2X1_RVT
*C2_R1_C1 1.223e+00 2.192e-02 1.223e+00 
*LOADS
*RC U1867:A3 5.364e-02
*END

*R_NET n1627 7.358e+00
*DRIVER U1798:Y
*CELL OR2X1_RVT
*C2_R1_C1 3.679e+00 8.117e-02 3.679e+00 
*LOADS
*RC U1718:A1 6.670e-02
*RC U1585:A 7.406e-02
*RC U1867:A2 5.833e-02
*END

*R_NET n1628 2.468e+00
*DRIVER U1865:Y
*CELL NAND3X0_RVT
*C2_R1_C1 1.234e+00 2.192e-02 1.234e+00 
*LOADS
*RC U1867:A1 5.411e-02
*END

*R_NET n1629 2.364e+00
*DRIVER U1867:Y
*CELL AO21X1_RVT
*C2_R1_C1 1.182e+00 2.192e-02 1.182e+00 
*LOADS
*RC U1868:A5 5.184e-02
*END

*R_NET n1630 2.091e+00
*DRIVER U1864:Y
*CELL NAND4X0_RVT
*C2_R1_C1 1.045e+00 2.192e-02 1.045e+00 
*LOADS
*RC U1868:A4 4.583e-02
*END

*R_NET n1631 2.104e+00
*DRIVER U1861:Y
*CELL NAND4X0_RVT
*C2_R1_C1 1.052e+00 2.192e-02 1.052e+00 
*LOADS
*RC U1868:A2 4.612e-02
*END

*R_NET n1632 7.864e+00
*DRIVER U1703:Y
*CELL NAND2X0_RVT
*C2_R1_C1 3.932e+00 8.117e-02 3.932e+00 
*LOADS
*RC U1644:A 1.001e-01
*RC U1839:A1 5.792e-02
*RC U1870:A2 5.474e-02
*END

*R_NET n1633 1.981e+00
*DRIVER U1871:Y
*CELL NAND4X0_RVT
*C2_R1_C1 9.903e-01 2.192e-02 9.903e-01 
*LOADS
*RC U1872:A3 4.342e-02
*END

*R_NET n1634 2.082e+00
*DRIVER U1869:Y
*CELL NAND4X0_RVT
*C2_R1_C1 1.041e+00 2.192e-02 1.041e+00 
*LOADS
*RC U1872:A2 4.564e-02
*END

*R_NET n1635 8.038e+00
*DRIVER U1613:Y
*CELL INVX1_RVT
*C2_R1_C1 4.019e+00 8.117e-02 4.019e+00 
*LOADS
*RC U1776:A1 6.681e-02
*RC U1849:A1 7.533e-02
*RC U1878:A1 7.533e-02
*END

*R_NET n1636 2.299e+00
*DRIVER U1880:Y
*CELL NAND3X0_RVT
*C2_R1_C1 1.149e+00 2.192e-02 1.149e+00 
*LOADS
*RC U1881:A4 5.040e-02
*END

*R_NET n1637 2.096e+00
*DRIVER U1877:Y
*CELL NAND4X0_RVT
*C2_R1_C1 1.048e+00 2.192e-02 1.048e+00 
*LOADS
*RC U1881:A2 4.594e-02
*END

*R_NET n1638 7.864e+00
*DRIVER U1780:Y
*CELL NAND2X0_RVT
*C2_R1_C1 3.932e+00 8.117e-02 3.932e+00 
*LOADS
*RC U1602:A 1.001e-01
*RC U1781:A2 5.474e-02
*RC U1881:A1 5.792e-02
*END

*R_NET n1639 1.030e+01
*DRIVER U1737:Y
*CELL NAND2X0_RVT
*C2_R1_C1 5.152e+00 1.158e-01 5.152e+00 
*LOADS
*RC U1613:A 1.071e-01
*RC U1738:A2 6.240e-02
*RC U1770:A2 5.856e-02
*RC U1882:A1 7.019e-02
*END

*R_NET n1640 2.842e+00
*DRIVER U1882:Y
*CELL NAND2X0_RVT
*C2_R1_C1 1.421e+00 2.192e-02 1.421e+00 
*LOADS
*RC U1884:A1 6.232e-02
*END

*R_NET n1641 2.506e+00
*DRIVER U1876:Y
*CELL NAND4X0_RVT
*C2_R1_C1 1.253e+00 2.192e-02 1.253e+00 
*LOADS
*RC U1886:A2 5.494e-02
*END

*R_NET n1642 5.017e+00
*DRIVER U1879:Y
*CELL NAND2X0_RVT
*C2_R1_C1 2.508e+00 5.002e-02 2.508e+00 
*LOADS
*RC U1574:A 6.844e-02
*RC U1880:A3 5.703e-02
*END

*R_NET n1643 2.644e+00
*DRIVER U1574:Y
*CELL INVX0_RVT
*C2_R1_C1 1.322e+00 2.192e-02 1.322e+00 
*LOADS
*RC U1858:A2 5.796e-02
*END

*R_NET n1646 4.866e+00
*DRIVER U1644:Y
*CELL INVX1_RVT
*C2_R1_C1 2.433e+00 5.002e-02 2.433e+00 
*LOADS
*RC U1711:A1 7.110e-02
*RC U1891:A2 5.059e-02
*END

*R_NET n1647 6.563e+00
*DRIVER U1740:Y
*CELL NAND3X0_RVT
*C2_R1_C1 3.281e+00 8.117e-02 3.281e+00 
*LOADS
*RC U1741:A2 5.474e-02
*RC U1753:A4 6.450e-02
*RC U1892:A2 5.833e-02
*END

*R_NET n1648 2.094e+00
*DRIVER U1667:Y
*CELL INVX1_RVT
*C2_R1_C1 1.047e+00 2.192e-02 1.047e+00 
*LOADS
*RC U1747:A1 4.591e-02
*END

*R_NET n1649 2.464e+00
*DRIVER U1892:Y
*CELL AO21X1_RVT
*C2_R1_C1 1.232e+00 2.192e-02 1.232e+00 
*LOADS
*RC U1893:A1 5.402e-02
*END

*R_NET n1650 2.280e+00
*DRIVER U1896:Y
*CELL NAND4X0_RVT
*C2_R1_C1 1.140e+00 2.192e-02 1.140e+00 
*LOADS
*RC U1897:A3 4.998e-02
*END

*R_NET n1651 2.436e+00
*DRIVER U1894:Y
*CELL NAND3X0_RVT
*C2_R1_C1 1.218e+00 2.192e-02 1.218e+00 
*LOADS
*RC U1897:A2 5.341e-02
*END

*R_NET n1652 2.446e+00
*DRIVER U1713:Y
*CELL OR2X1_RVT
*C2_R1_C1 1.223e+00 2.192e-02 1.223e+00 
*LOADS
*RC U1900:A3 5.364e-02
*END

*R_NET n1653 2.468e+00
*DRIVER U1898:Y
*CELL NAND2X0_RVT
*C2_R1_C1 1.234e+00 2.192e-02 1.234e+00 
*LOADS
*RC U1900:A1 5.411e-02
*END

*R_NET n1654 6.083e+00
*DRIVER U1813:Y
*CELL NAND2X0_RVT
*C2_R1_C1 3.041e+00 5.002e-02 3.041e+00 
*LOADS
*RC U1651:A 9.252e-02
*RC U1814:A4 5.961e-02
*END

*R_NET n1655 2.436e+00
*DRIVER U1651:Y
*CELL INVX1_RVT
*C2_R1_C1 1.218e+00 2.192e-02 1.218e+00 
*LOADS
*RC U1902:A2 5.341e-02
*END

*R_NET n1656 5.587e+00
*DRIVER U1619:Y
*CELL INVX1_RVT
*C2_R1_C1 2.793e+00 5.002e-02 2.793e+00 
*LOADS
*RC U1871:A2 6.422e-02
*RC U1903:A1 7.550e-02
*END

*R_NET n1657 2.906e+00
*DRIVER U1905:Y
*CELL NAND4X0_RVT
*C2_R1_C1 1.453e+00 2.192e-02 1.453e+00 
*LOADS
*RC U1906:A4 6.370e-02
*END

*R_NET n1658 1.755e+00
*DRIVER U1906:Y
*CELL NOR4X1_RVT
*C2_R1_C1 8.777e-01 2.192e-02 8.777e-01 
*LOADS
*RC U1709:A4 3.848e-02
*END

*R_NET n1659 1.813e+00
*DRIVER U1842:Y
*CELL AND4X1_RVT
*C2_R1_C1 9.065e-01 2.192e-02 9.065e-01 
*LOADS
*RC U1709:A3 3.975e-02
*END

*R_NET n1660 2.299e+00
*DRIVER U1912:Y
*CELL NAND3X0_RVT
*C2_R1_C1 1.149e+00 2.192e-02 1.149e+00 
*LOADS
*RC U1913:A4 5.040e-02
*END

*R_NET n1661 2.096e+00
*DRIVER U1910:Y
*CELL NAND4X0_RVT
*C2_R1_C1 1.048e+00 2.192e-02 1.048e+00 
*LOADS
*RC U1913:A2 4.594e-02
*END

*R_NET n1662 2.803e+00
*DRIVER U1909:Y
*CELL OR4X1_RVT
*C2_R1_C1 1.401e+00 2.192e-02 1.401e+00 
*LOADS
*RC U1914:A1 6.145e-02
*END

*R_NET n1663 9.398e+00
*DRIVER U1891:Y
*CELL NAND2X0_RVT
*C2_R1_C1 4.699e+00 8.117e-02 4.699e+00 
*LOADS
*RC U1606:A 1.001e-01
*RC U1892:A3 6.622e-02
*RC U1915:A2 8.795e-02
*END

*R_NET n1664 2.382e+00
*DRIVER U1915:Y
*CELL OR2X1_RVT
*C2_R1_C1 1.191e+00 2.192e-02 1.191e+00 
*LOADS
*RC U1916:A2 5.223e-02
*END

*R_NET n1665 2.803e+00
*DRIVER U1914:Y
*CELL AND2X1_RVT
*C2_R1_C1 1.401e+00 2.192e-02 1.401e+00 
*LOADS
*RC U1916:A1 6.145e-02
*END

*R_NET n1666 8.003e+00
*DRIVER U1810:Y
*CELL NAND2X0_RVT
*C2_R1_C1 4.002e+00 8.117e-02 4.002e+00 
*LOADS
*RC U1603:A 1.001e-01
*RC U1879:A2 5.474e-02
*RC U1917:A3 6.171e-02
*END

*R_NET n1667 1.116e+01
*DRIVER U1730:Y
*CELL NAND2X0_RVT
*C2_R1_C1 5.580e+00 1.158e-01 5.580e+00 
*LOADS
*RC U1893:A2 7.656e-02
*RC U1667:A 1.071e-01
*RC U1747:A3 6.882e-02
*RC U1917:A2 7.055e-02
*END

*R_NET n1668 5.567e+00
*DRIVER U1606:Y
*CELL INVX1_RVT
*C2_R1_C1 2.784e+00 5.002e-02 2.784e+00 
*LOADS
*RC U1894:A1 6.962e-02
*RC U1917:A1 6.962e-02
*END

*R_NET n1669 4.759e+00
*DRIVER U1907:Y
*CELL NAND2X0_RVT
*C2_R1_C1 2.380e+00 5.002e-02 2.380e+00 
*LOADS
*RC U1572:A 6.844e-02
*RC U1908:A2 5.059e-02
*END

*R_NET n1670 8.928e+00
*DRIVER U1789:Y
*CELL NAND3X0_RVT
*C2_R1_C1 4.464e+00 8.117e-02 4.464e+00 
*LOADS
*RC U1626:A 1.001e-01
*RC U1816:A1 6.561e-02
*RC U1919:A1 7.586e-02
*END

*R_NET n1671 2.578e+00
*DRIVER U1919:Y
*CELL AND2X1_RVT
*C2_R1_C1 1.289e+00 2.192e-02 1.289e+00 
*LOADS
*RC U1920:A4 5.653e-02
*END

*R_NET n1672 1.066e+01
*DRIVER U1732:Y
*CELL NAND2X0_RVT
*C2_R1_C1 5.330e+00 1.158e-01 5.330e+00 
*LOADS
*RC U1654:A 1.071e-01
*RC U1733:A2 5.856e-02
*RC U1746:A2 7.004e-02
*RC U1920:A3 7.281e-02
*END

*R_NET n1673 4.712e+00
*DRIVER U1908:Y
*CELL NAND2X0_RVT
*C2_R1_C1 2.356e+00 5.002e-02 2.356e+00 
*LOADS
*RC U1909:A2 6.092e-02
*RC U1920:A2 5.692e-02
*END

*R_NET n1674 2.280e+00
*DRIVER U1920:Y
*CELL AO22X1_RVT
*C2_R1_C1 1.140e+00 2.192e-02 1.140e+00 
*LOADS
*RC U1921:A3 4.998e-02
*END

*R_NET n1675 2.082e+00
*DRIVER U1918:Y
*CELL NAND4X0_RVT
*C2_R1_C1 1.041e+00 2.192e-02 1.041e+00 
*LOADS
*RC U1922:A2 4.564e-02
*END

*R_NET n1676 2.393e+00
*DRIVER U1917:Y
*CELL NAND3X0_RVT
*C2_R1_C1 1.196e+00 2.192e-02 1.196e+00 
*LOADS
*RC U1922:A1 5.246e-02
*END

*R_NET n1677 7.726e+00
*DRIVER U1654:Y
*CELL INVX1_RVT
*C2_R1_C1 3.863e+00 8.117e-02 3.863e+00 
*LOADS
*RC U1877:A2 6.949e-02
*RC U1918:A3 7.008e-02
*RC U1924:A2 6.949e-02
*END

*R_NET n1678 3.249e+00
*DRIVER U1927:Y
*CELL NAND2X0_RVT
*C2_R1_C1 1.625e+00 2.192e-02 1.625e+00 
*LOADS
*RC U1712:A2 7.124e-02
*END

*R_NET n1679 2.446e+00
*DRIVER U1712:Y
*CELL OR2X1_RVT
*C2_R1_C1 1.223e+00 2.192e-02 1.223e+00 
*LOADS
*RC U1928:A3 5.364e-02
*END

*R_NET n1680 2.155e+00
*DRIVER U1926:Y
*CELL OR2X1_RVT
*C2_R1_C1 1.077e+00 2.192e-02 1.077e+00 
*LOADS
*RC U1928:A2 4.724e-02
*END

*R_NET n1681 2.468e+00
*DRIVER U1925:Y
*CELL NAND2X0_RVT
*C2_R1_C1 1.234e+00 2.192e-02 1.234e+00 
*LOADS
*RC U1928:A1 5.411e-02
*END

*R_NET n1682 2.058e+00
*DRIVER U1928:Y
*CELL AO21X1_RVT
*C2_R1_C1 1.029e+00 2.192e-02 1.029e+00 
*LOADS
*RC U1929:A3 4.513e-02
*END

*R_NET n1683 2.506e+00
*DRIVER U1924:Y
*CELL NAND4X0_RVT
*C2_R1_C1 1.253e+00 2.192e-02 1.253e+00 
*LOADS
*RC U1929:A2 5.494e-02
*END

*R_NET n1684 4.765e+00
*DRIVER U1803:Y
*CELL AND2X1_RVT
*C2_R1_C1 2.383e+00 5.002e-02 2.383e+00 
*LOADS
*RC U1804:A2 5.959e-02
*RC U1931:A2 5.959e-02
*END

*R_NET n1685 6.542e+00
*DRIVER U1750:Y
*CELL NAND3X0_RVT
*C2_R1_C1 3.271e+00 5.002e-02 3.271e+00 
*LOADS
*RC U1889:A1 7.110e-02
*RC U1620:A 9.252e-02
*END

*R_NET n1686 3.249e+00
*DRIVER U1935:Y
*CELL NAND4X0_RVT
*C2_R1_C1 1.625e+00 2.192e-02 1.625e+00 
*LOADS
*RC U1889:A2 7.124e-02
*END

*R_NET n1689 2.383e+00
*DRIVER U1888:Y
*CELL AND3X1_RVT
*C2_R1_C1 1.191e+00 2.192e-02 1.191e+00 
*LOADS
*RC U1938:A4 5.224e-02
*END

*R_NET n1690 4.649e+00
*DRIVER U1885:Y
*CELL AND2X1_RVT
*C2_R1_C1 2.324e+00 5.002e-02 2.324e+00 
*LOADS
*RC U1886:A3 5.150e-02
*RC U1938:A3 6.477e-02
*END

*R_NET n1691 3.018e+00
*DRIVER U1931:Y
*CELL AND2X1_RVT
*C2_R1_C1 1.509e+00 2.192e-02 1.509e+00 
*LOADS
*RC U1938:A1 6.617e-02
*END

*R_NET n1692 2.446e+00
*DRIVER U1710:Y
*CELL OR2X1_RVT
*C2_R1_C1 1.223e+00 2.192e-02 1.223e+00 
*LOADS
*RC U1941:A3 5.364e-02
*END

*R_NET n1693 5.541e+00
*DRIVER U1899:Y
*CELL NAND2X0_RVT
*C2_R1_C1 2.770e+00 5.002e-02 2.770e+00 
*LOADS
*RC U1713:A1 7.110e-02
*RC U1942:A5 6.748e-02
*END

*R_NET n1694 4.835e+00
*DRIVER U1941:Y
*CELL AO21X1_RVT
*C2_R1_C1 2.418e+00 5.002e-02 2.418e+00 
*LOADS
*RC U1942:A3 5.904e-02
*RC U1942:A1 6.188e-02
*END

*R_NET n1695 3.428e+01
*DRIVER U1634:Y
*CELL INVX1_RVT
*C2_R1_C1 1.714e+01 6.463e-01 1.714e+01 
*LOADS
*RC U1703:A2 1.008e-01
*RC U1854:A3 1.290e-01
*RC U1946:A1 1.396e-01
*RC U1853:A1 1.208e-01
*RC U1857:A1 1.386e-01
*RC U1861:A1 1.503e-01
*RC U1862:A1 1.386e-01
*RC U1866:A1 1.208e-01