*SPEF "IEEE 1481-1999"
*DESIGN "sram_ifmap_buffer"
*DATE "Fri Dec  6 17:45:51 2024"
*VENDOR "SYNOPSYS INC"
*PROGRAM "Synopsys Design Compiler cmos"
*VERSION "V-2023.12-SP5"
*DESIGN_FLOW "SYNTHESIS"
*DIVIDER /
*DELIMITER :
*BUS_DELIMITER []
*T_UNIT 1.0 NS
*C_UNIT 0.0010 PF
*R_UNIT 1000.0 KOHM
*L_UNIT 1.0 HENRY

*PORTS

clk I *L 0.000e+00 *S 0.000e+00 0.000e+00 *D NBUFFX4_RVT 
reset_n I *L 0.000e+00 *S 0.000e+00 0.000e+00 *D NBUFFX4_RVT 
enable I *L 0.000e+00 *S 2.401e-03 3.606e-02 *D NBUFFX4_RVT 
wr_en I *L 0.000e+00 *S 0.000e+00 0.000e+00 *D NBUFFX4_RVT 
in_data\[7\] I *L 0.000e+00 *S 0.000e+00 0.000e+00 *D NBUFFX4_RVT 
in_data\[6\] I *L 0.000e+00 *S 0.000e+00 0.000e+00 *D NBUFFX4_RVT 
in_data\[5\] I *L 0.000e+00 *S 0.000e+00 0.000e+00 *D NBUFFX4_RVT 
in_data\[4\] I *L 0.000e+00 *S 0.000e+00 0.000e+00 *D NBUFFX4_RVT 
in_data\[3\] I *L 0.000e+00 *S 0.000e+00 0.000e+00 *D NBUFFX4_RVT 
in_data\[2\] I *L 0.000e+00 *S 0.000e+00 0.000e+00 *D NBUFFX4_RVT 
in_data\[1\] I *L 0.000e+00 *S 0.000e+00 0.000e+00 *D NBUFFX4_RVT 
in_data\[0\] I *L 0.000e+00 *S 0.000e+00 0.000e+00 *D NBUFFX4_RVT 
addr\[6\] I *L 0.000e+00 *S 0.000e+00 0.000e+00 *D NBUFFX4_RVT 
addr\[5\] I *L 0.000e+00 *S 0.000e+00 0.000e+00 *D NBUFFX4_RVT 
addr\[4\] I *L 0.000e+00 *S 0.000e+00 0.000e+00 *D NBUFFX4_RVT 
addr\[3\] I *L 0.000e+00 *S 0.000e+00 0.000e+00 *D NBUFFX4_RVT 
addr\[2\] I *L 0.000e+00 *S 0.000e+00 0.000e+00 *D NBUFFX4_RVT 
addr\[1\] I *L 0.000e+00 *S 0.000e+00 0.000e+00 *D NBUFFX4_RVT 
addr\[0\] I *L 0.000e+00 *S 0.000e+00 0.000e+00 *D NBUFFX4_RVT 
out\[7\] O *L 3.000e-01 *S 0.000e+00 0.000e+00 
out\[6\] O *L 3.000e-01 *S 0.000e+00 0.000e+00 
out\[5\] O *L 3.000e-01 *S 0.000e+00 0.000e+00 
out\[4\] O *L 3.000e-01 *S 0.000e+00 0.000e+00 
out\[3\] O *L 3.000e-01 *S 0.000e+00 0.000e+00 
out\[2\] O *L 3.000e-01 *S 0.000e+00 0.000e+00 
out\[1\] O *L 3.000e-01 *S 0.000e+00 0.000e+00 
out\[0\] O *L 3.000e-01 *S 0.000e+00 0.000e+00 

*R_NET n_Logic0_ 0.000e+00
*C2_R1_C1 0.000e+00 0.000e+00 0.000e+00 
*LOADS
*RC input_buffer_inst0:OEB 0.000e+00
*DRIVER input_buffer_inst0:OEB
*CELL input_buffer_inst
*C2_R1_C1 0.000e+00 0.000e+00 0.000e+00 
*LOADS
*END

*R_NET clk 2.211e-01
*DRIVER clk
*CELL NBUFFX4_RVT
*C2_R1_C1 1.106e-01 1.710e-02 1.106e-01 
*LOADS
*RC input_buffer_inst0:CE 3.783e-03
*DRIVER input_buffer_inst0:CE
*CELL input_buffer_inst
*C2_R1_C1 1.106e-01 1.710e-02 1.106e-01 
*LOADS
*END

*R_NET enable 2.953e+00
*DRIVER enable
*CELL NBUFFX4_RVT
*C2_R1_C1 1.476e+00 1.710e-02 1.476e+00 
*LOADS
*RC U2:A 5.051e-02
*END

*R_NET wr_en 2.211e-01
*DRIVER wr_en
*CELL NBUFFX4_RVT
*C2_R1_C1 1.106e-01 1.710e-02 1.106e-01 
*LOADS
*RC input_buffer_inst0:WEB 3.783e-03
*DRIVER input_buffer_inst0:WEB
*CELL input_buffer_inst
*C2_R1_C1 1.106e-01 1.710e-02 1.106e-01 
*LOADS
*END

*R_NET in_data\[7\] 2.211e-01
*DRIVER in_data\[7\]
*CELL NBUFFX4_RVT
*C2_R1_C1 1.106e-01 1.710e-02 1.106e-01 
*LOADS
*RC input_buffer_inst0:I\[7\] 3.783e-03
*DRIVER input_buffer_inst0:I\[7\]
*CELL input_buffer_inst
*C2_R1_C1 1.106e-01 1.710e-02 1.106e-01 
*LOADS
*END

*R_NET in_data\[6\] 2.211e-01
*DRIVER in_data\[6\]
*CELL NBUFFX4_RVT
*C2_R1_C1 1.106e-01 1.710e-02 1.106e-01 
*LOADS
*RC input_buffer_inst0:I\[6\] 3.783e-03
*DRIVER input_buffer_inst0:I\[6\]
*CELL input_buffer_inst
*C2_R1_C1 1.106e-01 1.710e-02 1.106e-01 
*LOADS
*END

*R_NET in_data\[5\] 2.211e-01
*DRIVER in_data\[5\]
*CELL NBUFFX4_RVT
*C2_R1_C1 1.106e-01 1.710e-02 1.106e-01 
*LOADS
*RC input_buffer_inst0:I\[5\] 3.783e-03
*DRIVER input_buffer_inst0:I\[5\]
*CELL input_buffer_inst
*C2_R1_C1 1.106e-01 1.710e-02 1.106e-01 
*LOADS
*END

*R_NET in_data\[4\] 2.211e-01
*DRIVER in_data\[4\]
*CELL NBUFFX4_RVT
*C2_R1_C1 1.106e-01 1.710e-02 1.106e-01 
*LOADS
*RC input_buffer_inst0:I\[4\] 3.783e-03
*DRIVER input_buffer_inst0:I\[4\]
*CELL input_buffer_inst
*C2_R1_C1 1.106e-01 1.710e-02 1.106e-01 
*LOADS
*END

*R_NET in_data\[3\] 2.211e-01
*DRIVER in_data\[3\]
*CELL NBUFFX4_RVT
*C2_R1_C1 1.106e-01 1.710e-02 1.106e-01 
*LOADS
*RC input_buffer_inst0:I\[3\] 3.783e-03
*DRIVER input_buffer_inst0:I\[3\]
*CELL input_buffer_inst
*C2_R1_C1 1.106e-01 1.710e-02 1.106e-01 
*LOADS
*END

*R_NET in_data\[2\] 2.211e-01
*DRIVER in_data\[2\]
*CELL NBUFFX4_RVT
*C2_R1_C1 1.106e-01 1.710e-02 1.106e-01 
*LOADS
*RC input_buffer_inst0:I\[2\] 3.783e-03
*DRIVER input_buffer_inst0:I\[2\]
*CELL input_buffer_inst
*C2_R1_C1 1.106e-01 1.710e-02 1.106e-01 
*LOADS
*END

*R_NET in_data\[1\] 2.211e-01
*DRIVER in_data\[1\]
*CELL NBUFFX4_RVT
*C2_R1_C1 1.106e-01 1.710e-02 1.106e-01 
*LOADS
*RC input_buffer_inst0:I\[1\] 3.783e-03
*DRIVER input_buffer_inst0:I\[1\]
*CELL input_buffer_inst
*C2_R1_C1 1.106e-01 1.710e-02 1.106e-01 
*LOADS
*END

*R_NET in_data\[0\] 2.211e-01
*DRIVER in_data\[0\]
*CELL NBUFFX4_RVT
*C2_R1_C1 1.106e-01 1.710e-02 1.106e-01 
*LOADS
*RC input_buffer_inst0:I\[0\] 3.783e-03
*DRIVER input_buffer_inst0:I\[0\]
*CELL input_buffer_inst
*C2_R1_C1 1.106e-01 1.710e-02 1.106e-01 
*LOADS
*END

*R_NET addr\[6\] 2.211e-01
*DRIVER addr\[6\]
*CELL NBUFFX4_RVT
*C2_R1_C1 1.106e-01 1.710e-02 1.106e-01 
*LOADS
*RC input_buffer_inst0:A\[6\] 3.783e-03
*DRIVER input_buffer_inst0:A\[6\]
*CELL input_buffer_inst
*C2_R1_C1 1.106e-01 1.710e-02 1.106e-01 
*LOADS
*END

*R_NET addr\[5\] 2.211e-01
*DRIVER addr\[5\]
*CELL NBUFFX4_RVT
*C2_R1_C1 1.106e-01 1.710e-02 1.106e-01 
*LOADS
*RC input_buffer_inst0:A\[5\] 3.783e-03
*DRIVER input_buffer_inst0:A\[5\]
*CELL input_buffer_inst
*C2_R1_C1 1.106e-01 1.710e-02 1.106e-01 
*LOADS
*END

*R_NET addr\[4\] 2.211e-01
*DRIVER addr\[4\]
*CELL NBUFFX4_RVT
*C2_R1_C1 1.106e-01 1.710e-02 1.106e-01 
*LOADS
*RC input_buffer_inst0:A\[4\] 3.783e-03
*DRIVER input_buffer_inst0:A\[4\]
*CELL input_buffer_inst
*C2_R1_C1 1.106e-01 1.710e-02 1.106e-01 
*LOADS
*END

*R_NET addr\[3\] 2.211e-01
*DRIVER addr\[3\]
*CELL NBUFFX4_RVT
*C2_R1_C1 1.106e-01 1.710e-02 1.106e-01 
*LOADS
*RC input_buffer_inst0:A\[3\] 3.783e-03
*DRIVER input_buffer_inst0:A\[3\]
*CELL input_buffer_inst
*C2_R1_C1 1.106e-01 1.710e-02 1.106e-01 
*LOADS
*END

*R_NET addr\[2\] 2.211e-01
*DRIVER addr\[2\]
*CELL NBUFFX4_RVT
*C2_R1_C1 1.106e-01 1.710e-02 1.106e-01 
*LOADS
*RC input_buffer_inst0:A\[2\] 3.783e-03
*DRIVER input_buffer_inst0:A\[2\]
*CELL input_buffer_inst
*C2_R1_C1 1.106e-01 1.710e-02 1.106e-01 
*LOADS
*END

*R_NET addr\[1\] 2.211e-01
*DRIVER addr\[1\]
*CELL NBUFFX4_RVT
*C2_R1_C1 1.106e-01 1.710e-02 1.106e-01 
*LOADS
*RC input_buffer_inst0:A\[1\] 3.783e-03
*DRIVER input_buffer_inst0:A\[1\]
*CELL input_buffer_inst
*C2_R1_C1 1.106e-01 1.710e-02 1.106e-01 
*LOADS
*END

*R_NET addr\[0\] 2.211e-01
*DRIVER addr\[0\]
*CELL NBUFFX4_RVT
*C2_R1_C1 1.106e-01 1.710e-02 1.106e-01 
*LOADS
*RC input_buffer_inst0:A\[0\] 3.783e-03
*DRIVER input_buffer_inst0:A\[0\]
*CELL input_buffer_inst
*C2_R1_C1 1.106e-01 1.710e-02 1.106e-01 
*LOADS
*END

*R_NET out\[7\] 5.211e-01
*DRIVER input_buffer_inst0:O\[7\]
*CELL input_buffer_inst
*C2_R1_C1 2.606e-01 1.710e-02 2.606e-01 
*LOADS
*RC out\[7\] 3.511e-03
*END

*R_NET out\[6\] 5.211e-01
*DRIVER input_buffer_inst0:O\[6\]
*CELL input_buffer_inst
*C2_R1_C1 2.606e-01 1.710e-02 2.606e-01 
*LOADS
*RC out\[6\] 3.511e-03
*END

*R_NET out\[5\] 5.211e-01
*DRIVER input_buffer_inst0:O\[5\]
*CELL input_buffer_inst
*C2_R1_C1 2.606e-01 1.710e-02 2.606e-01 
*LOADS
*RC out\[5\] 3.511e-03
*END

*R_NET out\[4\] 5.211e-01
*DRIVER input_buffer_inst0:O\[4\]
*CELL input_buffer_inst
*C2_R1_C1 2.606e-01 1.710e-02 2.606e-01 
*LOADS
*RC out\[4\] 3.511e-03
*END

*R_NET out\[3\] 5.211e-01
*DRIVER input_buffer_inst0:O\[3\]
*CELL input_buffer_inst
*C2_R1_C1 2.606e-01 1.710e-02 2.606e-01 
*LOADS
*RC out\[3\] 3.511e-03
*END

*R_NET out\[2\] 5.211e-01
*DRIVER input_buffer_inst0:O\[2\]
*CELL input_buffer_inst
*C2_R1_C1 2.606e-01 1.710e-02 2.606e-01 
*LOADS
*RC out\[2\] 3.511e-03
*END

*R_NET out\[1\] 5.211e-01
*DRIVER input_buffer_inst0:O\[1\]
*CELL input_buffer_inst
*C2_R1_C1 2.606e-01 1.710e-02 2.606e-01 
*LOADS
*RC out\[1\] 3.511e-03
*END

*R_NET out\[0\] 5.211e-01
*DRIVER input_buffer_inst0:O\[0\]
*CELL input_buffer_inst
*C2_R1_C1 2.606e-01 1.710e-02 2.606e-01 
*LOADS
*RC out\[0\] 3.511e-03
*END

*R_NET n_1_net_ 2.211e-01
*DRIVER U2:Y
*CELL INVX0_RVT
*C2_R1_C1 1.106e-01 1.710e-02 1.106e-01 
*LOADS
*RC input_buffer_inst0:CSB 3.783e-03
*DRIVER input_buffer_inst0:CSB
*CELL input_buffer_inst
*C2_R1_C1 1.106e-01 1.710e-02 1.106e-01 
*LOADS
*END
