*SPEF "IEEE 1481-1999"
*DESIGN "SystolicArray_w_buffer"
*DATE "Fri Dec  6 20:51:03 2024"
*VENDOR "SYNOPSYS INC"
*PROGRAM "Synopsys Design Compiler cmos"
*VERSION "V-2023.12-SP5"
*DESIGN_FLOW "SYNTHESIS"
*DIVIDER /
*DELIMITER :
*BUS_DELIMITER []
*T_UNIT 1.0 NS
*C_UNIT 0.0010 PF
*R_UNIT 1000.0 KOHM
*L_UNIT 1.0 HENRY

*PORTS

clock I *L 0.000e+00 *S 0.000e+00 1.247e+00 *D NBUFFX4_RVT 
rst I *L 0.000e+00 *S 1.243e-02 1.934e-02 *D NBUFFX4_RVT 
X_in\[63\] I *L 0.000e+00 *S 2.183e-03 3.832e-02 *D NBUFFX4_RVT 
X_in\[62\] I *L 0.000e+00 *S 2.183e-03 3.832e-02 *D NBUFFX4_RVT 
X_in\[61\] I *L 0.000e+00 *S 2.183e-03 3.832e-02 *D NBUFFX4_RVT 
X_in\[60\] I *L 0.000e+00 *S 2.183e-03 3.832e-02 *D NBUFFX4_RVT 
X_in\[59\] I *L 0.000e+00 *S 2.183e-03 3.832e-02 *D NBUFFX4_RVT 
X_in\[58\] I *L 0.000e+00 *S 2.183e-03 3.832e-02 *D NBUFFX4_RVT 
X_in\[57\] I *L 0.000e+00 *S 2.183e-03 3.832e-02 *D NBUFFX4_RVT 
X_in\[56\] I *L 0.000e+00 *S 2.183e-03 3.832e-02 *D NBUFFX4_RVT 
X_in\[55\] I *L 0.000e+00 *S 2.183e-03 3.832e-02 *D NBUFFX4_RVT 
X_in\[54\] I *L 0.000e+00 *S 2.183e-03 3.832e-02 *D NBUFFX4_RVT 
X_in\[53\] I *L 0.000e+00 *S 2.183e-03 3.832e-02 *D NBUFFX4_RVT 
X_in\[52\] I *L 0.000e+00 *S 2.183e-03 3.832e-02 *D NBUFFX4_RVT 
X_in\[51\] I *L 0.000e+00 *S 2.183e-03 3.832e-02 *D NBUFFX4_RVT 
X_in\[50\] I *L 0.000e+00 *S 2.183e-03 3.832e-02 *D NBUFFX4_RVT 
X_in\[49\] I *L 0.000e+00 *S 2.183e-03 3.832e-02 *D NBUFFX4_RVT 
X_in\[48\] I *L 0.000e+00 *S 2.183e-03 3.832e-02 *D NBUFFX4_RVT 
X_in\[47\] I *L 0.000e+00 *S 2.183e-03 3.832e-02 *D NBUFFX4_RVT 
X_in\[46\] I *L 0.000e+00 *S 2.183e-03 3.832e-02 *D NBUFFX4_RVT 
X_in\[45\] I *L 0.000e+00 *S 2.183e-03 3.832e-02 *D NBUFFX4_RVT 
X_in\[44\] I *L 0.000e+00 *S 2.183e-03 3.832e-02 *D NBUFFX4_RVT 
X_in\[43\] I *L 0.000e+00 *S 2.183e-03 3.832e-02 *D NBUFFX4_RVT 
X_in\[42\] I *L 0.000e+00 *S 2.183e-03 3.832e-02 *D NBUFFX4_RVT 
X_in\[41\] I *L 0.000e+00 *S 2.183e-03 3.832e-02 *D NBUFFX4_RVT 
X_in\[40\] I *L 0.000e+00 *S 2.183e-03 3.832e-02 *D NBUFFX4_RVT 
X_in\[39\] I *L 0.000e+00 *S 2.183e-03 3.832e-02 *D NBUFFX4_RVT 
X_in\[38\] I *L 0.000e+00 *S 2.183e-03 3.832e-02 *D NBUFFX4_RVT 
X_in\[37\] I *L 0.000e+00 *S 2.183e-03 3.832e-02 *D NBUFFX4_RVT 
X_in\[36\] I *L 0.000e+00 *S 2.183e-03 3.832e-02 *D NBUFFX4_RVT 
X_in\[35\] I *L 0.000e+00 *S 2.183e-03 3.832e-02 *D NBUFFX4_RVT 
X_in\[34\] I *L 0.000e+00 *S 2.183e-03 3.832e-02 *D NBUFFX4_RVT 
X_in\[33\] I *L 0.000e+00 *S 2.183e-03 3.832e-02 *D NBUFFX4_RVT 
X_in\[32\] I *L 0.000e+00 *S 2.183e-03 3.832e-02 *D NBUFFX4_RVT 
X_in\[31\] I *L 0.000e+00 *S 2.183e-03 3.832e-02 *D NBUFFX4_RVT 
X_in\[30\] I *L 0.000e+00 *S 2.183e-03 3.832e-02 *D NBUFFX4_RVT 
X_in\[29\] I *L 0.000e+00 *S 2.183e-03 3.832e-02 *D NBUFFX4_RVT 
X_in\[28\] I *L 0.000e+00 *S 2.183e-03 3.832e-02 *D NBUFFX4_RVT 
X_in\[27\] I *L 0.000e+00 *S 2.183e-03 3.832e-02 *D NBUFFX4_RVT 
X_in\[26\] I *L 0.000e+00 *S 2.183e-03 3.832e-02 *D NBUFFX4_RVT 
X_in\[25\] I *L 0.000e+00 *S 2.183e-03 3.832e-02 *D NBUFFX4_RVT 
X_in\[24\] I *L 0.000e+00 *S 2.183e-03 3.832e-02 *D NBUFFX4_RVT 
X_in\[23\] I *L 0.000e+00 *S 2.183e-03 3.832e-02 *D NBUFFX4_RVT 
X_in\[22\] I *L 0.000e+00 *S 2.183e-03 3.832e-02 *D NBUFFX4_RVT 
X_in\[21\] I *L 0.000e+00 *S 2.183e-03 3.832e-02 *D NBUFFX4_RVT 
X_in\[20\] I *L 0.000e+00 *S 2.183e-03 3.832e-02 *D NBUFFX4_RVT 
X_in\[19\] I *L 0.000e+00 *S 2.183e-03 3.832e-02 *D NBUFFX4_RVT 
X_in\[18\] I *L 0.000e+00 *S 2.183e-03 3.832e-02 *D NBUFFX4_RVT 
X_in\[17\] I *L 0.000e+00 *S 2.183e-03 3.832e-02 *D NBUFFX4_RVT 
X_in\[16\] I *L 0.000e+00 *S 2.183e-03 3.832e-02 *D NBUFFX4_RVT 
X_in\[15\] I *L 0.000e+00 *S 2.183e-03 3.832e-02 *D NBUFFX4_RVT 
X_in\[14\] I *L 0.000e+00 *S 2.183e-03 3.832e-02 *D NBUFFX4_RVT 
X_in\[13\] I *L 0.000e+00 *S 2.183e-03 3.832e-02 *D NBUFFX4_RVT 
X_in\[12\] I *L 0.000e+00 *S 2.183e-03 3.832e-02 *D NBUFFX4_RVT 
X_in\[11\] I *L 0.000e+00 *S 2.183e-03 3.832e-02 *D NBUFFX4_RVT 
X_in\[10\] I *L 0.000e+00 *S 2.183e-03 3.832e-02 *D NBUFFX4_RVT 
X_in\[9\] I *L 0.000e+00 *S 2.183e-03 3.832e-02 *D NBUFFX4_RVT 
X_in\[8\] I *L 0.000e+00 *S 2.183e-03 3.832e-02 *D NBUFFX4_RVT 
X_in\[7\] I *L 0.000e+00 *S 2.183e-03 3.832e-02 *D NBUFFX4_RVT 
X_in\[6\] I *L 0.000e+00 *S 2.183e-03 3.832e-02 *D NBUFFX4_RVT 
X_in\[5\] I *L 0.000e+00 *S 2.183e-03 3.832e-02 *D NBUFFX4_RVT 
X_in\[4\] I *L 0.000e+00 *S 2.183e-03 3.832e-02 *D NBUFFX4_RVT 
X_in\[3\] I *L 0.000e+00 *S 2.183e-03 3.832e-02 *D NBUFFX4_RVT 
X_in\[2\] I *L 0.000e+00 *S 2.183e-03 3.832e-02 *D NBUFFX4_RVT 
X_in\[1\] I *L 0.000e+00 *S 2.183e-03 3.832e-02 *D NBUFFX4_RVT 
X_in\[0\] I *L 0.000e+00 *S 2.183e-03 3.832e-02 *D NBUFFX4_RVT 
W_in\[3\] I *L 0.000e+00 *S 2.183e-03 3.832e-02 *D NBUFFX4_RVT 
W_in\[2\] I *L 0.000e+00 *S 2.183e-03 3.832e-02 *D NBUFFX4_RVT 
W_in\[1\] I *L 0.000e+00 *S 2.183e-03 3.832e-02 *D NBUFFX4_RVT 
W_in\[0\] I *L 0.000e+00 *S 2.183e-03 3.832e-02 *D NBUFFX4_RVT 
Y_out\[255\] O *L 3.000e-01 *S 7.837e-03 8.991e-03 
Y_out\[254\] O *L 3.000e-01 *S 1.303e-02 1.486e-02 
Y_out\[253\] O *L 3.000e-01 *S 1.312e-02 1.496e-02 
Y_out\[252\] O *L 3.000e-01 *S 1.312e-02 1.496e-02 
Y_out\[251\] O *L 3.000e-01 *S 1.312e-02 1.496e-02 
Y_out\[250\] O *L 3.000e-01 *S 1.312e-02 1.496e-02 
Y_out\[249\] O *L 3.000e-01 *S 1.312e-02 1.496e-02 
Y_out\[248\] O *L 3.000e-01 *S 1.312e-02 1.496e-02 
Y_out\[247\] O *L 3.000e-01 *S 1.312e-02 1.496e-02 
Y_out\[246\] O *L 3.000e-01 *S 1.312e-02 1.496e-02 
Y_out\[245\] O *L 3.000e-01 *S 1.312e-02 1.496e-02 
Y_out\[244\] O *L 3.000e-01 *S 1.312e-02 1.496e-02 
Y_out\[243\] O *L 3.000e-01 *S 1.312e-02 1.496e-02 
Y_out\[242\] O *L 3.000e-01 *S 1.312e-02 1.496e-02 
Y_out\[241\] O *L 3.000e-01 *S 1.312e-02 1.496e-02 
Y_out\[240\] O *L 3.000e-01 *S 1.891e-02 2.154e-02 
Y_out\[239\] O *L 3.000e-01 *S 1.312e-02 1.496e-02 
Y_out\[238\] O *L 3.000e-01 *S 2.249e-02 2.639e-02 
Y_out\[237\] O *L 3.000e-01 *S 1.568e-03 1.881e-03 
Y_out\[236\] O *L 3.000e-01 *S 1.790e-02 2.111e-02 
Y_out\[235\] O *L 3.000e-01 *S 1.568e-03 1.881e-03 
Y_out\[234\] O *L 3.000e-01 *S 1.790e-02 2.111e-02 
Y_out\[233\] O *L 3.000e-01 *S 1.568e-03 1.881e-03 
Y_out\[232\] O *L 3.000e-01 *S 1.790e-02 2.111e-02 
Y_out\[231\] O *L 3.000e-01 *S 1.568e-03 1.881e-03 
Y_out\[230\] O *L 3.000e-01 *S 1.790e-02 2.111e-02 
Y_out\[229\] O *L 3.000e-01 *S 1.568e-03 1.881e-03 
Y_out\[228\] O *L 3.000e-01 *S 2.249e-02 2.639e-02 
Y_out\[227\] O *L 3.000e-01 *S 2.191e-02 2.572e-02 
Y_out\[226\] O *L 3.000e-01 *S 2.191e-02 2.572e-02 
Y_out\[225\] O *L 3.000e-01 *S 2.191e-02 2.572e-02 
Y_out\[224\] O *L 3.000e-01 *S 1.484e-02 1.750e-02 
Y_out\[223\] O *L 3.000e-01 *S 7.837e-03 8.991e-03 
Y_out\[222\] O *L 3.000e-01 *S 1.303e-02 1.486e-02 
Y_out\[221\] O *L 3.000e-01 *S 1.312e-02 1.496e-02 
Y_out\[220\] O *L 3.000e-01 *S 1.312e-02 1.496e-02 
Y_out\[219\] O *L 3.000e-01 *S 1.312e-02 1.496e-02 
Y_out\[218\] O *L 3.000e-01 *S 1.312e-02 1.496e-02 
Y_out\[217\] O *L 3.000e-01 *S 1.312e-02 1.496e-02 
Y_out\[216\] O *L 3.000e-01 *S 1.891e-02 2.154e-02 
Y_out\[215\] O *L 3.000e-01 *S 1.312e-02 1.496e-02 
Y_out\[214\] O *L 3.000e-01 *S 7.453e-03 8.561e-03 
Y_out\[213\] O *L 3.000e-01 *S 1.312e-02 1.496e-02 
Y_out\[212\] O *L 3.000e-01 *S 1.312e-02 1.496e-02 
Y_out\[211\] O *L 3.000e-01 *S 1.312e-02 1.496e-02 
Y_out\[210\] O *L 3.000e-01 *S 1.312e-02 1.496e-02 
Y_out\[209\] O *L 3.000e-01 *S 1.312e-02 1.496e-02 
Y_out\[208\] O *L 3.000e-01 *S 1.891e-02 2.154e-02 
Y_out\[207\] O *L 3.000e-01 *S 1.312e-02 1.496e-02 
Y_out\[206\] O *L 3.000e-01 *S 2.249e-02 2.639e-02 
Y_out\[205\] O *L 3.000e-01 *S 1.568e-03 1.881e-03 
Y_out\[204\] O *L 3.000e-01 *S 1.790e-02 2.111e-02 
Y_out\[203\] O *L 3.000e-01 *S 1.568e-03 1.881e-03 
Y_out\[202\] O *L 3.000e-01 *S 1.790e-02 2.111e-02 
Y_out\[201\] O *L 3.000e-01 *S 1.568e-03 1.881e-03 
Y_out\[200\] O *L 3.000e-01 *S 1.790e-02 2.111e-02 
Y_out\[199\] O *L 3.000e-01 *S 1.568e-03 1.881e-03 
Y_out\[198\] O *L 3.000e-01 *S 1.790e-02 2.111e-02 
Y_out\[197\] O *L 3.000e-01 *S 1.568e-03 1.881e-03 
Y_out\[196\] O *L 3.000e-01 *S 2.249e-02 2.639e-02 
Y_out\[195\] O *L 3.000e-01 *S 2.191e-02 2.572e-02 
Y_out\[194\] O *L 3.000e-01 *S 2.191e-02 2.572e-02 
Y_out\[193\] O *L 3.000e-01 *S 2.191e-02 2.572e-02 
Y_out\[192\] O *L 3.000e-01 *S 1.484e-02 1.750e-02 
Y_out\[191\] O *L 3.000e-01 *S 7.837e-03 8.991e-03 
Y_out\[190\] O *L 3.000e-01 *S 1.303e-02 1.486e-02 
Y_out\[189\] O *L 3.000e-01 *S 1.312e-02 1.496e-02 
Y_out\[188\] O *L 3.000e-01 *S 1.312e-02 1.496e-02 
Y_out\[187\] O *L 3.000e-01 *S 1.312e-02 1.496e-02 
Y_out\[186\] O *L 3.000e-01 *S 1.312e-02 1.496e-02 
Y_out\[185\] O *L 3.000e-01 *S 1.312e-02 1.496e-02 
Y_out\[184\] O *L 3.000e-01 *S 1.891e-02 2.154e-02 
Y_out\[183\] O *L 3.000e-01 *S 1.312e-02 1.496e-02 
Y_out\[182\] O *L 3.000e-01 *S 1.312e-02 1.496e-02 
Y_out\[181\] O *L 3.000e-01 *S 1.312e-02 1.496e-02 
Y_out\[180\] O *L 3.000e-01 *S 1.312e-02 1.496e-02 
Y_out\[179\] O *L 3.000e-01 *S 1.312e-02 1.496e-02 
Y_out\[178\] O *L 3.000e-01 *S 1.312e-02 1.496e-02 
Y_out\[177\] O *L 3.000e-01 *S 1.312e-02 1.496e-02 
Y_out\[176\] O *L 3.000e-01 *S 1.891e-02 2.154e-02 
Y_out\[175\] O *L 3.000e-01 *S 1.312e-02 1.496e-02 
Y_out\[174\] O *L 3.000e-01 *S 2.249e-02 2.639e-02 
Y_out\[173\] O *L 3.000e-01 *S 1.568e-03 1.881e-03 
Y_out\[172\] O *L 3.000e-01 *S 1.790e-02 2.111e-02 
Y_out\[171\] O *L 3.000e-01 *S 1.568e-03 1.881e-03 
Y_out\[170\] O *L 3.000e-01 *S 1.790e-02 2.111e-02 
Y_out\[169\] O *L 3.000e-01 *S 1.568e-03 1.881e-03 
Y_out\[168\] O *L 3.000e-01 *S 1.790e-02 2.111e-02 
Y_out\[167\] O *L 3.000e-01 *S 1.568e-03 1.881e-03 
Y_out\[166\] O *L 3.000e-01 *S 1.790e-02 2.111e-02 
Y_out\[165\] O *L 3.000e-01 *S 1.568e-03 1.881e-03 
Y_out\[164\] O *L 3.000e-01 *S 2.249e-02 2.639e-02 
Y_out\[163\] O *L 3.000e-01 *S 2.191e-02 2.572e-02 
Y_out\[162\] O *L 3.000e-01 *S 2.191e-02 2.572e-02 
Y_out\[161\] O *L 3.000e-01 *S 2.191e-02 2.572e-02 
Y_out\[160\] O *L 3.000e-01 *S 1.484e-02 1.750e-02 
Y_out\[159\] O *L 3.000e-01 *S 7.837e-03 8.991e-03 
Y_out\[158\] O *L 3.000e-01 *S 1.303e-02 1.486e-02 
Y_out\[157\] O *L 3.000e-01 *S 1.312e-02 1.496e-02 
Y_out\[156\] O *L 3.000e-01 *S 1.312e-02 1.496e-02 
Y_out\[155\] O *L 3.000e-01 *S 1.312e-02 1.496e-02 
Y_out\[154\] O *L 3.000e-01 *S 1.312e-02 1.496e-02 
Y_out\[153\] O *L 3.000e-01 *S 1.312e-02 1.496e-02 
Y_out\[152\] O *L 3.000e-01 *S 1.891e-02 2.154e-02 
Y_out\[151\] O *L 3.000e-01 *S 1.312e-02 1.496e-02 
Y_out\[150\] O *L 3.000e-01 *S 1.312e-02 1.496e-02 
Y_out\[149\] O *L 3.000e-01 *S 1.312e-02 1.496e-02 
Y_out\[148\] O *L 3.000e-01 *S 1.312e-02 1.496e-02 
Y_out\[147\] O *L 3.000e-01 *S 1.312e-02 1.496e-02 
Y_out\[146\] O *L 3.000e-01 *S 1.312e-02 1.496e-02 
Y_out\[145\] O *L 3.000e-01 *S 1.312e-02 1.496e-02 
Y_out\[144\] O *L 3.000e-01 *S 1.891e-02 2.154e-02 
Y_out\[143\] O *L 3.000e-01 *S 1.312e-02 1.496e-02 
Y_out\[142\] O *L 3.000e-01 *S 2.249e-02 2.639e-02 
Y_out\[141\] O *L 3.000e-01 *S 1.568e-03 1.881e-03 
Y_out\[140\] O *L 3.000e-01 *S 1.790e-02 2.111e-02 
Y_out\[139\] O *L 3.000e-01 *S 1.568e-03 1.881e-03 
Y_out\[138\] O *L 3.000e-01 *S 1.790e-02 2.111e-02 
Y_out\[137\] O *L 3.000e-01 *S 1.568e-03 1.881e-03 
Y_out\[136\] O *L 3.000e-01 *S 1.790e-02 2.111e-02 
Y_out\[135\] O *L 3.000e-01 *S 1.568e-03 1.881e-03 
Y_out\[134\] O *L 3.000e-01 *S 1.790e-02 2.111e-02 
Y_out\[133\] O *L 3.000e-01 *S 1.568e-03 1.881e-03 
Y_out\[132\] O *L 3.000e-01 *S 2.249e-02 2.639e-02 
Y_out\[131\] O *L 3.000e-01 *S 2.191e-02 2.572e-02 
Y_out\[130\] O *L 3.000e-01 *S 2.191e-02 2.572e-02 
Y_out\[129\] O *L 3.000e-01 *S 2.191e-02 2.572e-02 
Y_out\[128\] O *L 3.000e-01 *S 1.484e-02 1.750e-02 
Y_out\[127\] O *L 3.000e-01 *S 7.837e-03 8.991e-03 
Y_out\[126\] O *L 3.000e-01 *S 1.303e-02 1.486e-02 
Y_out\[125\] O *L 3.000e-01 *S 1.312e-02 1.496e-02 
Y_out\[124\] O *L 3.000e-01 *S 1.891e-02 2.154e-02 
Y_out\[123\] O *L 3.000e-01 *S 1.312e-02 1.496e-02 
Y_out\[122\] O *L 3.000e-01 *S 1.891e-02 2.154e-02 
Y_out\[121\] O *L 3.000e-01 *S 1.312e-02 1.496e-02 
Y_out\[120\] O *L 3.000e-01 *S 1.312e-02 1.496e-02 
Y_out\[119\] O *L 3.000e-01 *S 1.312e-02 1.496e-02 
Y_out\[118\] O *L 3.000e-01 *S 1.891e-02 2.154e-02 
Y_out\[117\] O *L 3.000e-01 *S 1.312e-02 1.496e-02 
Y_out\[116\] O *L 3.000e-01 *S 1.312e-02 1.496e-02 
Y_out\[115\] O *L 3.000e-01 *S 1.312e-02 1.496e-02 
Y_out\[114\] O *L 3.000e-01 *S 1.312e-02 1.496e-02 
Y_out\[113\] O *L 3.000e-01 *S 1.891e-02 2.154e-02 
Y_out\[112\] O *L 3.000e-01 *S 1.312e-02 1.496e-02 
Y_out\[111\] O *L 3.000e-01 *S 1.312e-02 1.496e-02 
Y_out\[110\] O *L 3.000e-01 *S 2.249e-02 2.639e-02 
Y_out\[109\] O *L 3.000e-01 *S 1.568e-03 1.881e-03 
Y_out\[108\] O *L 3.000e-01 *S 1.790e-02 2.111e-02 
Y_out\[107\] O *L 3.000e-01 *S 1.568e-03 1.881e-03 
Y_out\[106\] O *L 3.000e-01 *S 1.790e-02 2.111e-02 
Y_out\[105\] O *L 3.000e-01 *S 1.568e-03 1.881e-03 
Y_out\[104\] O *L 3.000e-01 *S 1.790e-02 2.111e-02 
Y_out\[103\] O *L 3.000e-01 *S 1.568e-03 1.881e-03 
Y_out\[102\] O *L 3.000e-01 *S 1.790e-02 2.111e-02 
Y_out\[101\] O *L 3.000e-01 *S 1.568e-03 1.881e-03 
Y_out\[100\] O *L 3.000e-01 *S 2.249e-02 2.639e-02 
Y_out\[99\] O *L 3.000e-01 *S 2.191e-02 2.572e-02 
Y_out\[98\] O *L 3.000e-01 *S 2.191e-02 2.572e-02 
Y_out\[97\] O *L 3.000e-01 *S 2.191e-02 2.572e-02 
Y_out\[96\] O *L 3.000e-01 *S 1.484e-02 1.750e-02 
Y_out\[95\] O *L 3.000e-01 *S 7.837e-03 8.991e-03 
Y_out\[94\] O *L 3.000e-01 *S 1.303e-02 1.486e-02 
Y_out\[93\] O *L 3.000e-01 *S 1.312e-02 1.496e-02 
Y_out\[92\] O *L 3.000e-01 *S 1.891e-02 2.154e-02 
Y_out\[91\] O *L 3.000e-01 *S 1.312e-02 1.496e-02 
Y_out\[90\] O *L 3.000e-01 *S 1.312e-02 1.496e-02 
Y_out\[89\] O *L 3.000e-01 *S 1.312e-02 1.496e-02 
Y_out\[88\] O *L 3.000e-01 *S 1.312e-02 1.496e-02 
Y_out\[87\] O *L 3.000e-01 *S 1.312e-02 1.496e-02 
Y_out\[86\] O *L 3.000e-01 *S 1.312e-02 1.496e-02 
Y_out\[85\] O *L 3.000e-01 *S 1.312e-02 1.496e-02 
Y_out\[84\] O *L 3.000e-01 *S 1.891e-02 2.154e-02 
Y_out\[83\] O *L 3.000e-01 *S 1.312e-02 1.496e-02 
Y_out\[82\] O *L 3.000e-01 *S 1.312e-02 1.496e-02 
Y_out\[81\] O *L 3.000e-01 *S 1.312e-02 1.496e-02 
Y_out\[80\] O *L 3.000e-01 *S 1.891e-02 2.154e-02 
Y_out\[79\] O *L 3.000e-01 *S 1.312e-02 1.496e-02 
Y_out\[78\] O *L 3.000e-01 *S 2.249e-02 2.639e-02 
Y_out\[77\] O *L 3.000e-01 *S 1.568e-03 1.881e-03 
Y_out\[76\] O *L 3.000e-01 *S 1.790e-02 2.111e-02 
Y_out\[75\] O *L 3.000e-01 *S 1.568e-03 1.881e-03 
Y_out\[74\] O *L 3.000e-01 *S 1.790e-02 2.111e-02 
Y_out\[73\] O *L 3.000e-01 *S 1.568e-03 1.881e-03 
Y_out\[72\] O *L 3.000e-01 *S 1.790e-02 2.111e-02 
Y_out\[71\] O *L 3.000e-01 *S 1.568e-03 1.881e-03 
Y_out\[70\] O *L 3.000e-01 *S 1.790e-02 2.111e-02 
Y_out\[69\] O *L 3.000e-01 *S 1.568e-03 1.881e-03 
Y_out\[68\] O *L 3.000e-01 *S 2.249e-02 2.639e-02 
Y_out\[67\] O *L 3.000e-01 *S 2.191e-02 2.572e-02 
Y_out\[66\] O *L 3.000e-01 *S 2.191e-02 2.572e-02 
Y_out\[65\] O *L 3.000e-01 *S 2.191e-02 2.572e-02 
Y_out\[64\] O *L 3.000e-01 *S 1.484e-02 1.750e-02 
Y_out\[63\] O *L 3.000e-01 *S 7.837e-03 8.991e-03 
Y_out\[62\] O *L 3.000e-01 *S 1.303e-02 1.486e-02 
Y_out\[61\] O *L 3.000e-01 *S 1.312e-02 1.496e-02 
Y_out\[60\] O *L 3.000e-01 *S 1.891e-02 2.154e-02 
Y_out\[59\] O *L 3.000e-01 *S 1.312e-02 1.496e-02 
Y_out\[58\] O *L 3.000e-01 *S 1.312e-02 1.496e-02 
Y_out\[57\] O *L 3.000e-01 *S 1.312e-02 1.496e-02 
Y_out\[56\] O *L 3.000e-01 *S 1.312e-02 1.496e-02 
Y_out\[55\] O *L 3.000e-01 *S 1.312e-02 1.496e-02 
Y_out\[54\] O *L 3.000e-01 *S 1.312e-02 1.496e-02 
Y_out\[53\] O *L 3.000e-01 *S 1.312e-02 1.496e-02 
Y_out\[52\] O *L 3.000e-01 *S 1.891e-02 2.154e-02 
Y_out\[51\] O *L 3.000e-01 *S 1.312e-02 1.496e-02 
Y_out\[50\] O *L 3.000e-01 *S 1.312e-02 1.496e-02 
Y_out\[49\] O *L 3.000e-01 *S 1.312e-02 1.496e-02 
Y_out\[48\] O *L 3.000e-01 *S 1.891e-02 2.154e-02 
Y_out\[47\] O *L 3.000e-01 *S 1.312e-02 1.496e-02 
Y_out\[46\] O *L 3.000e-01 *S 2.249e-02 2.639e-02 
Y_out\[45\] O *L 3.000e-01 *S 1.568e-03 1.881e-03 
Y_out\[44\] O *L 3.000e-01 *S 1.790e-02 2.111e-02 
Y_out\[43\] O *L 3.000e-01 *S 1.568e-03 1.881e-03 
Y_out\[42\] O *L 3.000e-01 *S 1.790e-02 2.111e-02 
Y_out\[41\] O *L 3.000e-01 *S 1.568e-03 1.881e-03 
Y_out\[40\] O *L 3.000e-01 *S 1.790e-02 2.111e-02 
Y_out\[39\] O *L 3.000e-01 *S 1.568e-03 1.881e-03 
Y_out\[38\] O *L 3.000e-01 *S 1.790e-02 2.111e-02 
Y_out\[37\] O *L 3.000e-01 *S 1.568e-03 1.881e-03 
Y_out\[36\] O *L 3.000e-01 *S 2.249e-02 2.639e-02 
Y_out\[35\] O *L 3.000e-01 *S 2.191e-02 2.572e-02 
Y_out\[34\] O *L 3.000e-01 *S 2.191e-02 2.572e-02 
Y_out\[33\] O *L 3.000e-01 *S 2.191e-02 2.572e-02 
Y_out\[32\] O *L 3.000e-01 *S 1.484e-02 1.750e-02 
Y_out\[31\] O *L 3.000e-01 *S 7.837e-03 8.991e-03 
Y_out\[30\] O *L 3.000e-01 *S 1.303e-02 1.486e-02 
Y_out\[29\] O *L 3.000e-01 *S 1.312e-02 1.496e-02 
Y_out\[28\] O *L 3.000e-01 *S 1.891e-02 2.154e-02 
Y_out\[27\] O *L 3.000e-01 *S 1.312e-02 1.496e-02 
Y_out\[26\] O *L 3.000e-01 *S 1.312e-02 1.496e-02 
Y_out\[25\] O *L 3.000e-01 *S 1.312e-02 1.496e-02 
Y_out\[24\] O *L 3.000e-01 *S 1.312e-02 1.496e-02 
Y_out\[23\] O *L 3.000e-01 *S 1.312e-02 1.496e-02 
Y_out\[22\] O *L 3.000e-01 *S 1.312e-02 1.496e-02 
Y_out\[21\] O *L 3.000e-01 *S 1.312e-02 1.496e-02 
Y_out\[20\] O *L 3.000e-01 *S 1.891e-02 2.154e-02 
Y_out\[19\] O *L 3.000e-01 *S 1.312e-02 1.496e-02 
Y_out\[18\] O *L 3.000e-01 *S 1.312e-02 1.496e-02 
Y_out\[17\] O *L 3.000e-01 *S 1.312e-02 1.496e-02 
Y_out\[16\] O *L 3.000e-01 *S 1.891e-02 2.154e-02 
Y_out\[15\] O *L 3.000e-01 *S 1.312e-02 1.496e-02 
Y_out\[14\] O *L 3.000e-01 *S 2.249e-02 2.639e-02 
Y_out\[13\] O *L 3.000e-01 *S 1.568e-03 1.881e-03 
Y_out\[12\] O *L 3.000e-01 *S 1.790e-02 2.111e-02 
Y_out\[11\] O *L 3.000e-01 *S 1.568e-03 1.881e-03 
Y_out\[10\] O *L 3.000e-01 *S 1.790e-02 2.111e-02 
Y_out\[9\] O *L 3.000e-01 *S 1.568e-03 1.881e-03 
Y_out\[8\] O *L 3.000e-01 *S 1.790e-02 2.111e-02 
Y_out\[7\] O *L 3.000e-01 *S 1.568e-03 1.881e-03 
Y_out\[6\] O *L 3.000e-01 *S 1.790e-02 2.111e-02 
Y_out\[5\] O *L 3.000e-01 *S 1.568e-03 1.881e-03 
Y_out\[4\] O *L 3.000e-01 *S 2.249e-02 2.639e-02 
Y_out\[3\] O *L 3.000e-01 *S 2.191e-02 2.572e-02 
Y_out\[2\] O *L 3.000e-01 *S 2.191e-02 2.572e-02 
Y_out\[1\] O *L 3.000e-01 *S 2.191e-02 2.572e-02 
Y_out\[0\] O *L 3.000e-01 *S 1.484e-02 1.750e-02 

*R_NET clock 1.644e+03
*DRIVER clock
*CELL NBUFFX4_RVT
*C2_R1_C1 8.219e+02 6.960e+01 8.219e+02 
*LOADS
*RC sa_genblk1_0__genblk1_0__pe_inst_w_reg_reg_0_:CLK 4.650e-01
*RC W_in_buffer_reg_0__0__0_:CLK 4.574e-01
*RC sa_genblk1_1__genblk1_1__pe_inst_psum_reg_reg_23_:CLK 4.574e-01
*RC sa_genblk1_0__genblk1_3__pe_inst_psum_reg_reg_23_:CLK 4.574e-01
*RC sa_genblk1_1__genblk1_3__pe_inst_psum_reg_reg_23_:CLK 4.574e-01
*RC sa_genblk1_0__genblk1_0__pe_inst_psum_reg_reg_23_:CLK 4.574e-01
*RC sa_genblk1_0__genblk1_1__pe_inst_psum_reg_reg_23_:CLK 4.574e-01
*RC sa_genblk1_0__genblk1_2__pe_inst_psum_reg_reg_23_:CLK 4.574e-01
*RC sa_genblk1_1__genblk1_2__pe_inst_psum_reg_reg_22_:CLK 4.574e-01
*RC sa_genblk1_1__genblk1_1__pe_inst_psum_reg_reg_22_:CLK 4.574e-01
*RC sa_genblk1_1__genblk1_0__pe_inst_psum_reg_reg_22_:CLK 4.574e-01
*RC sa_genblk1_1__genblk1_3__pe_inst_psum_reg_reg_22_:CLK 4.574e-01
*RC sa_genblk1_0__genblk1_0__pe_inst_psum_reg_reg_22_:CLK 4.574e-01
*RC sa_genblk1_0__genblk1_1__pe_inst_psum_reg_reg_22_:CLK 4.574e-01
*RC sa_genblk1_0__genblk1_2__pe_inst_psum_reg_reg_22_:CLK 4.574e-01
*RC sa_genblk1_0__genblk1_3__pe_inst_psum_reg_reg_22_:CLK 4.574e-01
*RC sa_genblk1_0__genblk1_3__pe_inst_psum_reg_reg_21_:CLK 4.574e-01
*RC sa_genblk1_1__genblk1_1__pe_inst_psum_reg_reg_21_:CLK 4.574e-01
*RC sa_genblk1_1__genblk1_2__pe_inst_psum_reg_reg_21_:CLK 4.574e-01
*RC sa_genblk1_1__genblk1_0__pe_inst_psum_reg_reg_21_:CLK 4.574e-01
*RC sa_genblk1_1__genblk1_3__pe_inst_psum_reg_reg_21_:CLK 4.574e-01
*RC sa_genblk1_0__genblk1_0__pe_inst_psum_reg_reg_21_:CLK 4.574e-01
*RC sa_genblk1_0__genblk1_1__pe_inst_psum_reg_reg_21_:CLK 4.574e-01
*RC sa_genblk1_0__genblk1_2__pe_inst_psum_reg_reg_21_:CLK 4.574e-01
*RC sa_genblk1_0__genblk1_3__pe_inst_psum_reg_reg_20_:CLK 4.574e-01
*RC sa_genblk1_1__genblk1_1__pe_inst_psum_reg_reg_20_:CLK 4.574e-01
*RC sa_genblk1_1__genblk1_2__pe_inst_psum_reg_reg_20_:CLK 4.574e-01
*RC sa_genblk1_1__genblk1_0__pe_inst_psum_reg_reg_20_:CLK 4.574e-01
*RC sa_genblk1_1__genblk1_3__pe_inst_psum_reg_reg_20_:CLK 4.574e-01
*RC sa_genblk1_0__genblk1_0__pe_inst_psum_reg_reg_20_:CLK 4.574e-01
*RC sa_genblk1_0__genblk1_1__pe_inst_psum_reg_reg_20_:CLK 4.574e-01
*RC sa_genblk1_0__genblk1_2__pe_inst_psum_reg_reg_20_:CLK 4.574e-01
*RC sa_genblk1_0__genblk1_0__pe_inst_psum_reg_reg_19_:CLK 4.574e-01
*RC sa_genblk1_0__genblk1_1__pe_inst_psum_reg_reg_19_:CLK 4.574e-01
*RC sa_genblk1_0__genblk1_2__pe_inst_psum_reg_reg_19_:CLK 4.574e-01
*RC sa_genblk1_0__genblk1_3__pe_inst_psum_reg_reg_19_:CLK 4.574e-01
*RC sa_genblk1_1__genblk1_2__pe_inst_psum_reg_reg_19_:CLK 4.574e-01
*RC sa_genblk1_1__genblk1_0__pe_inst_psum_reg_reg_19_:CLK 4.574e-01
*RC sa_genblk1_1__genblk1_1__pe_inst_psum_reg_reg_19_:CLK 4.574e-01
*RC sa_genblk1_1__genblk1_3__pe_inst_psum_reg_reg_19_:CLK 4.574e-01
*RC sa_genblk1_0__genblk1_3__pe_inst_psum_reg_reg_18_:CLK 4.574e-01
*RC sa_genblk1_0__genblk1_0__pe_inst_psum_reg_reg_18_:CLK 4.574e-01
*RC sa_genblk1_0__genblk1_1__pe_inst_psum_reg_reg_18_:CLK 4.574e-01
*RC sa_genblk1_0__genblk1_2__pe_inst_psum_reg_reg_18_:CLK 4.574e-01
*RC sa_genblk1_1__genblk1_2__pe_inst_psum_reg_reg_18_:CLK 4.574e-01
*RC sa_genblk1_1__genblk1_1__pe_inst_psum_reg_reg_18_:CLK 4.574e-01
*RC sa_genblk1_1__genblk1_0__pe_inst_psum_reg_reg_18_:CLK 4.574e-01
*RC sa_genblk1_1__genblk1_3__pe_inst_psum_reg_reg_18_:CLK 4.574e-01
*RC sa_genblk1_0__genblk1_0__pe_inst_psum_reg_reg_17_:CLK 4.574e-01
*RC sa_genblk1_0__genblk1_1__pe_inst_psum_reg_reg_17_:CLK 4.574e-01
*RC sa_genblk1_0__genblk1_2__pe_inst_psum_reg_reg_17_:CLK 4.574e-01
*RC sa_genblk1_0__genblk1_3__pe_inst_psum_reg_reg_17_:CLK 4.574e-01
*RC sa_genblk1_0__genblk1_3__pe_inst_psum_reg_reg_16_:CLK 4.574e-01
*RC sa_genblk1_1__genblk1_2__pe_inst_psum_reg_reg_17_:CLK 4.574e-01
*RC sa_genblk1_1__genblk1_1__pe_inst_psum_reg_reg_17_:CLK 4.574e-01
*RC sa_genblk1_1__genblk1_0__pe_inst_psum_reg_reg_17_:CLK 4.574e-01
*RC sa_genblk1_1__genblk1_3__pe_inst_psum_reg_reg_17_:CLK 4.574e-01
*RC sa_genblk1_0__genblk1_0__pe_inst_psum_reg_reg_15_:CLK 4.574e-01
*RC sa_genblk1_0__genblk1_1__pe_inst_psum_reg_reg_15_:CLK 4.574e-01
*RC sa_genblk1_0__genblk1_2__pe_inst_psum_reg_reg_15_:CLK 4.574e-01
*RC sa_genblk1_0__genblk1_0__pe_inst_psum_reg_reg_16_:CLK 4.574e-01
*RC sa_genblk1_0__genblk1_1__pe_inst_psum_reg_reg_16_:CLK 4.574e-01
*RC sa_genblk1_0__genblk1_2__pe_inst_psum_reg_reg_16_:CLK 4.574e-01
*RC sa_genblk1_0__genblk1_3__pe_inst_psum_reg_reg_15_:CLK 4.574e-01
*RC sa_genblk1_1__genblk1_2__pe_inst_psum_reg_reg_15_:CLK 4.574e-01
*RC sa_genblk1_1__genblk1_1__pe_inst_psum_reg_reg_15_:CLK 4.574e-01
*RC sa_genblk1_1__genblk1_0__pe_inst_psum_reg_reg_15_:CLK 4.574e-01
*RC sa_genblk1_1__genblk1_3__pe_inst_psum_reg_reg_15_:CLK 4.574e-01
*RC sa_genblk1_1__genblk1_2__pe_inst_psum_reg_reg_16_:CLK 4.574e-01
*RC sa_genblk1_1__genblk1_1__pe_inst_psum_reg_reg_16_:CLK 4.574e-01
*RC sa_genblk1_1__genblk1_0__pe_inst_psum_reg_reg_16_:CLK 4.574e-01
*RC sa_genblk1_1__genblk1_3__pe_inst_psum_reg_reg_16_:CLK 4.574e-01
*RC sa_genblk1_0__genblk1_0__pe_inst_psum_reg_reg_14_:CLK 4.650e-01
*RC sa_genblk1_0__genblk1_1__pe_inst_psum_reg_reg_14_:CLK 4.650e-01
*RC sa_genblk1_0__genblk1_2__pe_inst_psum_reg_reg_14_:CLK 4.650e-01
*RC sa_genblk1_0__genblk1_3__pe_inst_psum_reg_reg_14_:CLK 4.650e-01
*RC sa_genblk1_1__genblk1_0__pe_inst_psum_reg_reg_14_:CLK 4.650e-01
*RC sa_genblk1_1__genblk1_1__pe_inst_psum_reg_reg_14_:CLK 4.650e-01
*RC sa_genblk1_1__genblk1_2__pe_inst_psum_reg_reg_14_:CLK 4.650e-01
*RC sa_genblk1_1__genblk1_3__pe_inst_psum_reg_reg_14_:CLK 4.650e-01
*RC sa_genblk1_0__genblk1_0__pe_inst_psum_reg_reg_13_:CLK 4.574e-01
*RC sa_genblk1_0__genblk1_1__pe_inst_psum_reg_reg_13_:CLK 4.574e-01
*RC sa_genblk1_0__genblk1_2__pe_inst_psum_reg_reg_13_:CLK 4.574e-01
*RC sa_genblk1_0__genblk1_3__pe_inst_psum_reg_reg_13_:CLK 4.574e-01
*RC sa_genblk1_1__genblk1_0__pe_inst_psum_reg_reg_13_:CLK 4.574e-01
*RC sa_genblk1_1__genblk1_1__pe_inst_psum_reg_reg_13_:CLK 4.574e-01
*RC sa_genblk1_1__genblk1_2__pe_inst_psum_reg_reg_13_:CLK 4.574e-01
*RC sa_genblk1_1__genblk1_3__pe_inst_psum_reg_reg_13_:CLK 4.574e-01
*RC sa_genblk1_0__genblk1_0__pe_inst_psum_reg_reg_12_:CLK 4.650e-01
*RC sa_genblk1_0__genblk1_1__pe_inst_psum_reg_reg_12_:CLK 4.650e-01
*RC sa_genblk1_0__genblk1_2__pe_inst_psum_reg_reg_12_:CLK 4.650e-01
*RC sa_genblk1_0__genblk1_3__pe_inst_psum_reg_reg_12_:CLK 4.650e-01
*RC sa_genblk1_1__genblk1_0__pe_inst_psum_reg_reg_12_:CLK 4.650e-01
*RC sa_genblk1_1__genblk1_1__pe_inst_psum_reg_reg_12_:CLK 4.650e-01
*RC sa_genblk1_1__genblk1_2__pe_inst_psum_reg_reg_12_:CLK 4.650e-01
*RC sa_genblk1_1__genblk1_3__pe_inst_psum_reg_reg_12_:CLK 4.650e-01
*RC sa_genblk1_0__genblk1_0__pe_inst_psum_reg_reg_11_:CLK 4.574e-01
*RC sa_genblk1_0__genblk1_1__pe_inst_psum_reg_reg_11_:CLK 4.574e-01
*RC sa_genblk1_0__genblk1_2__pe_inst_psum_reg_reg_11_:CLK 4.574e-01
*RC sa_genblk1_0__genblk1_3__pe_inst_psum_reg_reg_11_:CLK 4.574e-01
*RC sa_genblk1_1__genblk1_0__pe_inst_psum_reg_reg_11_:CLK 4.574e-01
*RC sa_genblk1_1__genblk1_1__pe_inst_psum_reg_reg_11_:CLK 4.574e-01
*RC sa_genblk1_1__genblk1_2__pe_inst_psum_reg_reg_11_:CLK 4.574e-01
*RC sa_genblk1_1__genblk1_3__pe_inst_psum_reg_reg_11_:CLK 4.574e-01
*RC sa_genblk1_0__genblk1_0__pe_inst_psum_reg_reg_10_:CLK 4.650e-01
*RC sa_genblk1_0__genblk1_1__pe_inst_psum_reg_reg_10_:CLK 4.650e-01
*RC sa_genblk1_0__genblk1_2__pe_inst_psum_reg_reg_10_:CLK 4.650e-01
*RC sa_genblk1_0__genblk1_3__pe_inst_psum_reg_reg_10_:CLK 4.650e-01
*RC sa_genblk1_1__genblk1_0__pe_inst_psum_reg_reg_10_:CLK 4.650e-01
*RC sa_genblk1_1__genblk1_1__pe_inst_psum_reg_reg_10_:CLK 4.650e-01
*RC sa_genblk1_1__genblk1_2__pe_inst_psum_reg_reg_10_:CLK 4.650e-01
*RC sa_genblk1_1__genblk1_3__pe_inst_psum_reg_reg_10_:CLK 4.650e-01
*RC sa_genblk1_0__genblk1_0__pe_inst_psum_reg_reg_9_:CLK 4.574e-01
*RC sa_genblk1_0__genblk1_1__pe_inst_psum_reg_reg_9_:CLK 4.574e-01
*RC sa_genblk1_0__genblk1_2__pe_inst_psum_reg_reg_9_:CLK 4.574e-01
*RC sa_genblk1_0__genblk1_3__pe_inst_psum_reg_reg_9_:CLK 4.574e-01
*RC sa_genblk1_1__genblk1_0__pe_inst_psum_reg_reg_9_:CLK 4.574e-01
*RC sa_genblk1_1__genblk1_1__pe_inst_psum_reg_reg_9_:CLK 4.574e-01
*RC sa_genblk1_1__genblk1_2__pe_inst_psum_reg_reg_9_:CLK 4.574e-01
*RC sa_genblk1_1__genblk1_3__pe_inst_psum_reg_reg_9_:CLK 4.574e-01
*RC sa_genblk1_0__genblk1_0__pe_inst_psum_reg_reg_8_:CLK 4.650e-01
*RC sa_genblk1_0__genblk1_1__pe_inst_psum_reg_reg_8_:CLK 4.650e-01
*RC sa_genblk1_0__genblk1_2__pe_inst_psum_reg_reg_8_:CLK 4.650e-01
*RC sa_genblk1_0__genblk1_3__pe_inst_psum_reg_reg_8_:CLK 4.650e-01
*RC sa_genblk1_1__genblk1_0__pe_inst_psum_reg_reg_8_:CLK 4.650e-01
*RC sa_genblk1_1__genblk1_1__pe_inst_psum_reg_reg_8_:CLK 4.650e-01
*RC sa_genblk1_1__genblk1_2__pe_inst_psum_reg_reg_8_:CLK 4.650e-01
*RC sa_genblk1_1__genblk1_3__pe_inst_psum_reg_reg_8_:CLK 4.650e-01
*RC sa_genblk1_0__genblk1_0__pe_inst_psum_reg_reg_7_:CLK 4.574e-01
*RC sa_genblk1_0__genblk1_1__pe_inst_psum_reg_reg_7_:CLK 4.574e-01
*RC sa_genblk1_0__genblk1_2__pe_inst_psum_reg_reg_7_:CLK 4.574e-01
*RC sa_genblk1_0__genblk1_3__pe_inst_psum_reg_reg_7_:CLK 4.574e-01
*RC sa_genblk1_1__genblk1_0__pe_inst_psum_reg_reg_7_:CLK 4.574e-01
*RC sa_genblk1_1__genblk1_1__pe_inst_psum_reg_reg_7_:CLK 4.574e-01
*RC sa_genblk1_1__genblk1_2__pe_inst_psum_reg_reg_7_:CLK 4.574e-01
*RC sa_genblk1_1__genblk1_3__pe_inst_psum_reg_reg_7_:CLK 4.574e-01
*RC sa_genblk1_0__genblk1_0__pe_inst_psum_reg_reg_6_:CLK 4.650e-01
*RC sa_genblk1_0__genblk1_1__pe_inst_psum_reg_reg_6_:CLK 4.650e-01
*RC sa_genblk1_0__genblk1_2__pe_inst_psum_reg_reg_6_:CLK 4.650e-01
*RC sa_genblk1_0__genblk1_3__pe_inst_psum_reg_reg_6_:CLK 4.650e-01
*RC sa_genblk1_1__genblk1_0__pe_inst_psum_reg_reg_6_:CLK 4.650e-01
*RC sa_genblk1_1__genblk1_1__pe_inst_psum_reg_reg_6_:CLK 4.650e-01
*RC sa_genblk1_1__genblk1_2__pe_inst_psum_reg_reg_6_:CLK 4.650e-01
*RC sa_genblk1_1__genblk1_3__pe_inst_psum_reg_reg_6_:CLK 4.650e-01
*RC sa_genblk1_0__genblk1_0__pe_inst_psum_reg_reg_5_:CLK 4.574e-01
*RC sa_genblk1_0__genblk1_1__pe_inst_psum_reg_reg_5_:CLK 4.574e-01
*RC sa_genblk1_0__genblk1_2__pe_inst_psum_reg_reg_5_:CLK 4.574e-01
*RC sa_genblk1_0__genblk1_3__pe_inst_psum_reg_reg_5_:CLK 4.574e-01
*RC sa_genblk1_1__genblk1_0__pe_inst_psum_reg_reg_5_:CLK 4.574e-01
*RC sa_genblk1_1__genblk1_1__pe_inst_psum_reg_reg_5_:CLK 4.574e-01
*RC sa_genblk1_1__genblk1_2__pe_inst_psum_reg_reg_5_:CLK 4.574e-01
*RC sa_genblk1_1__genblk1_3__pe_inst_psum_reg_reg_5_:CLK 4.574e-01
*RC sa_genblk1_0__genblk1_0__pe_inst_psum_reg_reg_4_:CLK 4.650e-01
*RC sa_genblk1_0__genblk1_1__pe_inst_psum_reg_reg_4_:CLK 4.650e-01
*RC sa_genblk1_0__genblk1_2__pe_inst_psum_reg_reg_4_:CLK 4.650e-01
*RC sa_genblk1_0__genblk1_3__pe_inst_psum_reg_reg_4_:CLK 4.650e-01
*RC sa_genblk1_1__genblk1_0__pe_inst_psum_reg_reg_4_:CLK 4.650e-01
*RC sa_genblk1_1__genblk1_1__pe_inst_psum_reg_reg_4_:CLK 4.650e-01
*RC sa_genblk1_1__genblk1_2__pe_inst_psum_reg_reg_4_:CLK 4.650e-01
*RC sa_genblk1_1__genblk1_3__pe_inst_psum_reg_reg_4_:CLK 4.650e-01
*RC sa_genblk1_0__genblk1_0__pe_inst_x_reg_reg_2_:CLK 4.650e-01
*RC sa_genblk1_0__genblk1_1__pe_inst_x_reg_reg_2_:CLK 4.650e-01
*RC sa_genblk1_0__genblk1_2__pe_inst_x_reg_reg_2_:CLK 4.650e-01
*RC sa_genblk1_0__genblk1_3__pe_inst_x_reg_reg_2_:CLK 4.650e-01
*RC sa_genblk1_0__genblk1_0__pe_inst_x_reg_reg_1_:CLK 4.650e-01
*RC sa_genblk1_0__genblk1_1__pe_inst_x_reg_reg_1_:CLK 4.650e-01
*RC sa_genblk1_0__genblk1_2__pe_inst_x_reg_reg_1_:CLK 4.650e-01
*RC sa_genblk1_0__genblk1_3__pe_inst_x_reg_reg_1_:CLK 4.650e-01
*RC sa_genblk1_0__genblk1_0__pe_inst_w_reg_reg_1_:CLK 4.650e-01
*RC sa_genblk1_0__genblk1_1__pe_inst_w_reg_reg_1_:CLK 4.650e-01
*RC sa_genblk1_0__genblk1_2__pe_inst_w_reg_reg_1_:CLK 4.650e-01
*RC sa_genblk1_1__genblk1_0__pe_inst_w_reg_reg_1_:CLK 4.650e-01
*RC sa_genblk1_1__genblk1_1__pe_inst_w_reg_reg_1_:CLK 4.650e-01
*RC sa_genblk1_1__genblk1_2__pe_inst_w_reg_reg_1_:CLK 4.650e-01
*RC sa_genblk1_0__genblk1_0__pe_inst_x_reg_reg_9_:CLK 4.650e-01
*RC sa_genblk1_0__genblk1_0__pe_inst_x_reg_reg_13_:CLK 4.650e-01