*SPEF "IEEE 1481-1999"
*DESIGN "vec_mean"
*DATE "Thu Dec  5 11:22:42 2024"
*VENDOR "SYNOPSYS INC"
*PROGRAM "Synopsys Design Compiler cmos"
*VERSION "V-2023.12-SP5"
*DESIGN_FLOW "SYNTHESIS"
*DIVIDER /
*DELIMITER :
*BUS_DELIMITER []
*T_UNIT 1.0 NS
*C_UNIT 0.0010 PF
*R_UNIT 1000.0 KOHM
*L_UNIT 1.0 HENRY

*PORTS

input_arr\[63\] I *L 0.000e+00 *S 2.834e-03 3.197e-02 *D NBUFFX4_RVT 
input_arr\[62\] I *L 0.000e+00 *S 5.838e-03 1.322e-02 *D NBUFFX4_RVT 
input_arr\[61\] I *L 0.000e+00 *S 5.838e-03 1.322e-02 *D NBUFFX4_RVT 
input_arr\[60\] I *L 0.000e+00 *S 5.838e-03 1.322e-02 *D NBUFFX4_RVT 
input_arr\[59\] I *L 0.000e+00 *S 5.838e-03 1.322e-02 *D NBUFFX4_RVT 
input_arr\[58\] I *L 0.000e+00 *S 5.838e-03 1.322e-02 *D NBUFFX4_RVT 
input_arr\[57\] I *L 0.000e+00 *S 5.838e-03 1.322e-02 *D NBUFFX4_RVT 
input_arr\[56\] I *L 0.000e+00 *S 5.838e-03 1.322e-02 *D NBUFFX4_RVT 
input_arr\[55\] I *L 0.000e+00 *S 5.838e-03 1.322e-02 *D NBUFFX4_RVT 
input_arr\[54\] I *L 0.000e+00 *S 5.838e-03 1.322e-02 *D NBUFFX4_RVT 
input_arr\[53\] I *L 0.000e+00 *S 5.838e-03 1.322e-02 *D NBUFFX4_RVT 
input_arr\[52\] I *L 0.000e+00 *S 5.838e-03 1.322e-02 *D NBUFFX4_RVT 
input_arr\[51\] I *L 0.000e+00 *S 5.838e-03 1.322e-02 *D NBUFFX4_RVT 
input_arr\[50\] I *L 0.000e+00 *S 5.838e-03 1.322e-02 *D NBUFFX4_RVT 
input_arr\[49\] I *L 0.000e+00 *S 5.838e-03 1.322e-02 *D NBUFFX4_RVT 
input_arr\[48\] I *L 0.000e+00 *S 2.183e-03 3.832e-02 *D NBUFFX4_RVT 
input_arr\[47\] I *L 0.000e+00 *S 2.834e-03 3.197e-02 *D NBUFFX4_RVT 
input_arr\[46\] I *L 0.000e+00 *S 6.011e-03 1.326e-02 *D NBUFFX4_RVT 
input_arr\[45\] I *L 0.000e+00 *S 6.011e-03 1.326e-02 *D NBUFFX4_RVT 
input_arr\[44\] I *L 0.000e+00 *S 6.011e-03 1.326e-02 *D NBUFFX4_RVT 
input_arr\[43\] I *L 0.000e+00 *S 6.011e-03 1.326e-02 *D NBUFFX4_RVT 
input_arr\[42\] I *L 0.000e+00 *S 6.011e-03 1.326e-02 *D NBUFFX4_RVT 
input_arr\[41\] I *L 0.000e+00 *S 6.011e-03 1.326e-02 *D NBUFFX4_RVT 
input_arr\[40\] I *L 0.000e+00 *S 6.011e-03 1.326e-02 *D NBUFFX4_RVT 
input_arr\[39\] I *L 0.000e+00 *S 6.011e-03 1.326e-02 *D NBUFFX4_RVT 
input_arr\[38\] I *L 0.000e+00 *S 6.011e-03 1.326e-02 *D NBUFFX4_RVT 
input_arr\[37\] I *L 0.000e+00 *S 6.011e-03 1.326e-02 *D NBUFFX4_RVT 
input_arr\[36\] I *L 0.000e+00 *S 6.011e-03 1.326e-02 *D NBUFFX4_RVT 
input_arr\[35\] I *L 0.000e+00 *S 6.011e-03 1.326e-02 *D NBUFFX4_RVT 
input_arr\[34\] I *L 0.000e+00 *S 6.011e-03 1.326e-02 *D NBUFFX4_RVT 
input_arr\[33\] I *L 0.000e+00 *S 6.011e-03 1.326e-02 *D NBUFFX4_RVT 
input_arr\[32\] I *L 0.000e+00 *S 1.891e-03 4.134e-02 *D NBUFFX4_RVT 
input_arr\[31\] I *L 0.000e+00 *S 2.834e-03 3.197e-02 *D NBUFFX4_RVT 
input_arr\[30\] I *L 0.000e+00 *S 6.011e-03 1.326e-02 *D NBUFFX4_RVT 
input_arr\[29\] I *L 0.000e+00 *S 6.011e-03 1.326e-02 *D NBUFFX4_RVT 
input_arr\[28\] I *L 0.000e+00 *S 6.011e-03 1.326e-02 *D NBUFFX4_RVT 
input_arr\[27\] I *L 0.000e+00 *S 6.011e-03 1.326e-02 *D NBUFFX4_RVT 
input_arr\[26\] I *L 0.000e+00 *S 6.011e-03 1.326e-02 *D NBUFFX4_RVT 
input_arr\[25\] I *L 0.000e+00 *S 6.011e-03 1.326e-02 *D NBUFFX4_RVT 
input_arr\[24\] I *L 0.000e+00 *S 6.011e-03 1.326e-02 *D NBUFFX4_RVT 
input_arr\[23\] I *L 0.000e+00 *S 6.011e-03 1.326e-02 *D NBUFFX4_RVT 
input_arr\[22\] I *L 0.000e+00 *S 6.011e-03 1.326e-02 *D NBUFFX4_RVT 
input_arr\[21\] I *L 0.000e+00 *S 6.011e-03 1.326e-02 *D NBUFFX4_RVT 
input_arr\[20\] I *L 0.000e+00 *S 6.011e-03 1.326e-02 *D NBUFFX4_RVT 
input_arr\[19\] I *L 0.000e+00 *S 6.011e-03 1.326e-02 *D NBUFFX4_RVT 
input_arr\[18\] I *L 0.000e+00 *S 6.011e-03 1.326e-02 *D NBUFFX4_RVT 
input_arr\[17\] I *L 0.000e+00 *S 3.878e-03 2.270e-02 *D NBUFFX4_RVT 
input_arr\[16\] I *L 0.000e+00 *S 1.895e-03 4.130e-02 *D NBUFFX4_RVT 
input_arr\[15\] I *L 0.000e+00 *S 2.834e-03 3.197e-02 *D NBUFFX4_RVT 
input_arr\[14\] I *L 0.000e+00 *S 5.838e-03 1.322e-02 *D NBUFFX4_RVT 
input_arr\[13\] I *L 0.000e+00 *S 5.838e-03 1.322e-02 *D NBUFFX4_RVT 
input_arr\[12\] I *L 0.000e+00 *S 5.838e-03 1.322e-02 *D NBUFFX4_RVT 
input_arr\[11\] I *L 0.000e+00 *S 5.838e-03 1.322e-02 *D NBUFFX4_RVT 
input_arr\[10\] I *L 0.000e+00 *S 5.838e-03 1.322e-02 *D NBUFFX4_RVT 
input_arr\[9\] I *L 0.000e+00 *S 5.838e-03 1.322e-02 *D NBUFFX4_RVT 
input_arr\[8\] I *L 0.000e+00 *S 5.838e-03 1.322e-02 *D NBUFFX4_RVT 
input_arr\[7\] I *L 0.000e+00 *S 5.838e-03 1.322e-02 *D NBUFFX4_RVT 
input_arr\[6\] I *L 0.000e+00 *S 5.838e-03 1.322e-02 *D NBUFFX4_RVT 
input_arr\[5\] I *L 0.000e+00 *S 5.838e-03 1.322e-02 *D NBUFFX4_RVT 
input_arr\[4\] I *L 0.000e+00 *S 5.838e-03 1.322e-02 *D NBUFFX4_RVT 
input_arr\[3\] I *L 0.000e+00 *S 5.838e-03 1.322e-02 *D NBUFFX4_RVT 
input_arr\[2\] I *L 0.000e+00 *S 5.838e-03 1.322e-02 *D NBUFFX4_RVT 
input_arr\[1\] I *L 0.000e+00 *S 4.326e-03 1.872e-02 *D NBUFFX4_RVT 
input_arr\[0\] I *L 0.000e+00 *S 1.613e-03 4.422e-02 *D NBUFFX4_RVT 
mean_out\[15\] O *L 3.000e-01 *S 3.086e-03 3.499e-03 
mean_out\[14\] O *L 3.000e-01 *S 2.086e-03 2.402e-03 
mean_out\[13\] O *L 3.000e-01 *S 3.086e-03 3.499e-03 
mean_out\[12\] O *L 3.000e-01 *S 3.086e-03 3.499e-03 
mean_out\[11\] O *L 3.000e-01 *S 3.086e-03 3.499e-03 
mean_out\[10\] O *L 3.000e-01 *S 3.086e-03 3.499e-03 
mean_out\[9\] O *L 3.000e-01 *S 3.086e-03 3.499e-03 
mean_out\[8\] O *L 3.000e-01 *S 3.086e-03 3.499e-03 
mean_out\[7\] O *L 3.000e-01 *S 3.086e-03 3.499e-03 
mean_out\[6\] O *L 3.000e-01 *S 3.086e-03 3.499e-03 
mean_out\[5\] O *L 3.000e-01 *S 3.086e-03 3.499e-03 
mean_out\[4\] O *L 3.000e-01 *S 3.086e-03 3.499e-03 
mean_out\[3\] O *L 3.000e-01 *S 3.086e-03 3.499e-03 
mean_out\[2\] O *L 3.000e-01 *S 3.086e-03 3.499e-03 
mean_out\[1\] O *L 3.000e-01 *S 3.086e-03 3.499e-03 
mean_out\[0\] O *L 3.000e-01 *S 3.086e-03 3.499e-03 

*R_NET input_arr\[63\] 3.699e+00
*DRIVER input_arr\[63\]
*CELL NBUFFX4_RVT
*C2_R1_C1 1.849e+00 2.192e-02 1.849e+00 
*LOADS
*RC U68:A 8.109e-02
*END

*R_NET input_arr\[62\] 7.861e+00
*DRIVER input_arr\[62\]
*CELL NBUFFX4_RVT
*C2_R1_C1 3.931e+00 2.192e-02 3.931e+00 
*LOADS
*RC U69:B 1.724e-01
*END

*R_NET input_arr\[61\] 7.861e+00
*DRIVER input_arr\[61\]
*CELL NBUFFX4_RVT
*C2_R1_C1 3.931e+00 2.192e-02 3.931e+00 
*LOADS
*RC U66:B 1.724e-01
*END

*R_NET input_arr\[60\] 7.861e+00
*DRIVER input_arr\[60\]
*CELL NBUFFX4_RVT
*C2_R1_C1 3.931e+00 2.192e-02 3.931e+00 
*LOADS
*RC U65:B 1.724e-01
*END

*R_NET input_arr\[59\] 7.861e+00
*DRIVER input_arr\[59\]
*CELL NBUFFX4_RVT
*C2_R1_C1 3.931e+00 2.192e-02 3.931e+00 
*LOADS
*RC U64:B 1.724e-01
*END

*R_NET input_arr\[58\] 7.861e+00
*DRIVER input_arr\[58\]
*CELL NBUFFX4_RVT
*C2_R1_C1 3.931e+00 2.192e-02 3.931e+00 
*LOADS
*RC U63:B 1.724e-01
*END

*R_NET input_arr\[57\] 7.861e+00
*DRIVER input_arr\[57\]
*CELL NBUFFX4_RVT
*C2_R1_C1 3.931e+00 2.192e-02 3.931e+00 
*LOADS
*RC U62:B 1.724e-01
*END

*R_NET input_arr\[56\] 7.861e+00
*DRIVER input_arr\[56\]
*CELL NBUFFX4_RVT
*C2_R1_C1 3.931e+00 2.192e-02 3.931e+00 
*LOADS
*RC U61:B 1.724e-01
*END

*R_NET input_arr\[55\] 7.861e+00
*DRIVER input_arr\[55\]
*CELL NBUFFX4_RVT
*C2_R1_C1 3.931e+00 2.192e-02 3.931e+00 
*LOADS
*RC U60:B 1.724e-01
*END

*R_NET input_arr\[54\] 7.861e+00
*DRIVER input_arr\[54\]
*CELL NBUFFX4_RVT
*C2_R1_C1 3.931e+00 2.192e-02 3.931e+00 
*LOADS
*RC U59:B 1.724e-01
*END

*R_NET input_arr\[53\] 7.861e+00
*DRIVER input_arr\[53\]
*CELL NBUFFX4_RVT
*C2_R1_C1 3.931e+00 2.192e-02 3.931e+00 
*LOADS
*RC U58:B 1.724e-01
*END

*R_NET input_arr\[52\] 7.861e+00
*DRIVER input_arr\[52\]
*CELL NBUFFX4_RVT
*C2_R1_C1 3.931e+00 2.192e-02 3.931e+00 
*LOADS
*RC U57:B 1.724e-01
*END

*R_NET input_arr\[51\] 7.861e+00
*DRIVER input_arr\[51\]
*CELL NBUFFX4_RVT
*C2_R1_C1 3.931e+00 2.192e-02 3.931e+00 
*LOADS
*RC U56:B 1.724e-01
*END

*R_NET input_arr\[50\] 7.861e+00
*DRIVER input_arr\[50\]
*CELL NBUFFX4_RVT
*C2_R1_C1 3.931e+00 2.192e-02 3.931e+00 
*LOADS
*RC U55:B 1.724e-01
*END

*R_NET input_arr\[49\] 7.861e+00
*DRIVER input_arr\[49\]
*CELL NBUFFX4_RVT
*C2_R1_C1 3.931e+00 2.192e-02 3.931e+00 
*LOADS
*RC U37:B 1.724e-01
*END

*R_NET input_arr\[48\] 2.803e+00
*DRIVER input_arr\[48\]
*CELL NBUFFX4_RVT
*C2_R1_C1 1.401e+00 2.192e-02 1.401e+00 
*LOADS
*RC U34:A1 6.145e-02
*END

*R_NET input_arr\[47\] 3.699e+00
*DRIVER input_arr\[47\]
*CELL NBUFFX4_RVT
*C2_R1_C1 1.849e+00 2.192e-02 1.849e+00 
*LOADS
*RC U67:A 8.109e-02
*END

*R_NET input_arr\[46\] 8.143e+00
*DRIVER input_arr\[46\]
*CELL NBUFFX4_RVT
*C2_R1_C1 4.072e+00 2.192e-02 4.072e+00 
*LOADS
*RC U69:A 1.785e-01
*END

*R_NET input_arr\[45\] 8.143e+00
*DRIVER input_arr\[45\]
*CELL NBUFFX4_RVT
*C2_R1_C1 4.072e+00 2.192e-02 4.072e+00 
*LOADS
*RC U66:A 1.785e-01
*END

*R_NET input_arr\[44\] 8.143e+00
*DRIVER input_arr\[44\]
*CELL NBUFFX4_RVT
*C2_R1_C1 4.072e+00 2.192e-02 4.072e+00 
*LOADS
*RC U65:A 1.785e-01
*END

*R_NET input_arr\[43\] 8.143e+00
*DRIVER input_arr\[43\]
*CELL NBUFFX4_RVT
*C2_R1_C1 4.072e+00 2.192e-02 4.072e+00 
*LOADS
*RC U64:A 1.785e-01
*END

*R_NET input_arr\[42\] 8.143e+00
*DRIVER input_arr\[42\]
*CELL NBUFFX4_RVT
*C2_R1_C1 4.072e+00 2.192e-02 4.072e+00 
*LOADS
*RC U63:A 1.785e-01
*END

*R_NET input_arr\[41\] 8.143e+00
*DRIVER input_arr\[41\]
*CELL NBUFFX4_RVT
*C2_R1_C1 4.072e+00 2.192e-02 4.072e+00 
*LOADS
*RC U62:A 1.785e-01
*END

*R_NET input_arr\[40\] 8.143e+00
*DRIVER input_arr\[40\]
*CELL NBUFFX4_RVT
*C2_R1_C1 4.072e+00 2.192e-02 4.072e+00 
*LOADS
*RC U61:A 1.785e-01
*END

*R_NET input_arr\[39\] 8.143e+00
*DRIVER input_arr\[39\]
*CELL NBUFFX4_RVT
*C2_R1_C1 4.072e+00 2.192e-02 4.072e+00 
*LOADS
*RC U60:A 1.785e-01
*END

*R_NET input_arr\[38\] 8.143e+00
*DRIVER input_arr\[38\]
*CELL NBUFFX4_RVT
*C2_R1_C1 4.072e+00 2.192e-02 4.072e+00 
*LOADS
*RC U59:A 1.785e-01
*END

*R_NET input_arr\[37\] 8.143e+00
*DRIVER input_arr\[37\]
*CELL NBUFFX4_RVT
*C2_R1_C1 4.072e+00 2.192e-02 4.072e+00 
*LOADS
*RC U58:A 1.785e-01
*END

*R_NET input_arr\[36\] 8.143e+00
*DRIVER input_arr\[36\]
*CELL NBUFFX4_RVT
*C2_R1_C1 4.072e+00 2.192e-02 4.072e+00 
*LOADS
*RC U57:A 1.785e-01
*END

*R_NET input_arr\[35\] 8.143e+00
*DRIVER input_arr\[35\]
*CELL NBUFFX4_RVT
*C2_R1_C1 4.072e+00 2.192e-02 4.072e+00 
*LOADS
*RC U56:A 1.785e-01
*END

*R_NET input_arr\[34\] 8.143e+00
*DRIVER input_arr\[34\]
*CELL NBUFFX4_RVT
*C2_R1_C1 4.072e+00 2.192e-02 4.072e+00 
*LOADS
*RC U55:A 1.785e-01
*END

*R_NET input_arr\[33\] 8.143e+00
*DRIVER input_arr\[33\]
*CELL NBUFFX4_RVT
*C2_R1_C1 4.072e+00 2.192e-02 4.072e+00 
*LOADS
*RC U37:A 1.785e-01
*END

*R_NET input_arr\[32\] 2.382e+00
*DRIVER input_arr\[32\]
*CELL NBUFFX4_RVT
*C2_R1_C1 1.191e+00 2.192e-02 1.191e+00 
*LOADS
*RC U34:A2 5.223e-02
*END

*R_NET input_arr\[31\] 3.699e+00
*DRIVER input_arr\[31\]
*CELL NBUFFX4_RVT
*C2_R1_C1 1.849e+00 2.192e-02 1.849e+00 
*LOADS
*RC U40:A 8.109e-02
*END

*R_NET input_arr\[30\] 8.143e+00
*DRIVER input_arr\[30\]
*CELL NBUFFX4_RVT
*C2_R1_C1 4.072e+00 2.192e-02 4.072e+00 
*LOADS
*RC U42:A 1.785e-01
*END

*R_NET input_arr\[29\] 8.143e+00
*DRIVER input_arr\[29\]
*CELL NBUFFX4_RVT
*C2_R1_C1 4.072e+00 2.192e-02 4.072e+00 
*LOADS
*RC U43:A 1.785e-01
*END

*R_NET input_arr\[28\] 8.143e+00
*DRIVER input_arr\[28\]
*CELL NBUFFX4_RVT
*C2_R1_C1 4.072e+00 2.192e-02 4.072e+00 
*LOADS
*RC U44:A 1.785e-01
*END

*R_NET input_arr\[27\] 8.143e+00
*DRIVER input_arr\[27\]
*CELL NBUFFX4_RVT
*C2_R1_C1 4.072e+00 2.192e-02 4.072e+00 
*LOADS
*RC U45:A 1.785e-01
*END

*R_NET input_arr\[26\] 8.143e+00
*DRIVER input_arr\[26\]
*CELL NBUFFX4_RVT
*C2_R1_C1 4.072e+00 2.192e-02 4.072e+00 
*LOADS
*RC U46:A 1.785e-01
*END

*R_NET input_arr\[25\] 8.143e+00
*DRIVER input_arr\[25\]
*CELL NBUFFX4_RVT
*C2_R1_C1 4.072e+00 2.192e-02 4.072e+00 
*LOADS
*RC U47:A 1.785e-01
*END

*R_NET input_arr\[24\] 8.143e+00
*DRIVER input_arr\[24\]
*CELL NBUFFX4_RVT
*C2_R1_C1 4.072e+00 2.192e-02 4.072e+00 
*LOADS
*RC U48:A 1.785e-01
*END

*R_NET input_arr\[23\] 8.143e+00
*DRIVER input_arr\[23\]
*CELL NBUFFX4_RVT
*C2_R1_C1 4.072e+00 2.192e-02 4.072e+00 
*LOADS
*RC U49:A 1.785e-01
*END

*R_NET input_arr\[22\] 8.143e+00
*DRIVER input_arr\[22\]
*CELL NBUFFX4_RVT
*C2_R1_C1 4.072e+00 2.192e-02 4.072e+00 
*LOADS
*RC U50:A 1.785e-01
*END

*R_NET input_arr\[21\] 8.143e+00
*DRIVER input_arr\[21\]
*CELL NBUFFX4_RVT
*C2_R1_C1 4.072e+00 2.192e-02 4.072e+00 
*LOADS
*RC U51:A 1.785e-01
*END

*R_NET input_arr\[20\] 8.143e+00
*DRIVER input_arr\[20\]
*CELL NBUFFX4_RVT
*C2_R1_C1 4.072e+00 2.192e-02 4.072e+00 
*LOADS
*RC U52:A 1.785e-01
*END

*R_NET input_arr\[19\] 8.143e+00
*DRIVER input_arr\[19\]
*CELL NBUFFX4_RVT
*C2_R1_C1 4.072e+00 2.192e-02 4.072e+00 
*LOADS
*RC U53:A 1.785e-01
*END

*R_NET input_arr\[18\] 8.143e+00
*DRIVER input_arr\[18\]
*CELL NBUFFX4_RVT
*C2_R1_C1 4.072e+00 2.192e-02 4.072e+00 
*LOADS
*RC U41:A 1.785e-01
*END

*R_NET input_arr\[17\] 5.071e+00
*DRIVER input_arr\[17\]
*CELL NBUFFX4_RVT
*C2_R1_C1 2.536e+00 5.002e-02 2.536e+00 
*LOADS
*RC U33:A2 5.959e-02
*RC U36:A4 6.724e-02
*END

*R_NET input_arr\[16\] 2.424e+00
*DRIVER input_arr\[16\]
*CELL NBUFFX4_RVT
*C2_R1_C1 1.212e+00 2.192e-02 1.212e+00 
*LOADS
*RC U35:A1 5.314e-02
*END

*R_NET input_arr\[15\] 3.699e+00
*DRIVER input_arr\[15\]
*CELL NBUFFX4_RVT
*C2_R1_C1 1.849e+00 2.192e-02 1.849e+00 
*LOADS
*RC U39:A 8.109e-02
*END

*R_NET input_arr\[14\] 7.861e+00
*DRIVER input_arr\[14\]
*CELL NBUFFX4_RVT
*C2_R1_C1 3.931e+00 2.192e-02 3.931e+00 
*LOADS
*RC U42:B 1.724e-01
*END

*R_NET input_arr\[13\] 7.861e+00
*DRIVER input_arr\[13\]
*CELL NBUFFX4_RVT
*C2_R1_C1 3.931e+00 2.192e-02 3.931e+00 
*LOADS
*RC U43:B 1.724e-01
*END

*R_NET input_arr\[12\] 7.861e+00
*DRIVER input_arr\[12\]
*CELL NBUFFX4_RVT
*C2_R1_C1 3.931e+00 2.192e-02 3.931e+00 
*LOADS
*RC U44:B 1.724e-01
*END

*R_NET input_arr\[11\] 7.861e+00
*DRIVER input_arr\[11\]
*CELL NBUFFX4_RVT
*C2_R1_C1 3.931e+00 2.192e-02 3.931e+00 
*LOADS
*RC U45:B 1.724e-01
*END

*R_NET input_arr\[10\] 7.861e+00
*DRIVER input_arr\[10\]
*CELL NBUFFX4_RVT
*C2_R1_C1 3.931e+00 2.192e-02 3.931e+00 
*LOADS
*RC U46:B 1.724e-01
*END

*R_NET input_arr\[9\] 7.861e+00
*DRIVER input_arr\[9\]
*CELL NBUFFX4_RVT
*C2_R1_C1 3.931e+00 2.192e-02 3.931e+00 
*LOADS
*RC U47:B 1.724e-01
*END

*R_NET input_arr\[8\] 7.861e+00
*DRIVER input_arr\[8\]
*CELL NBUFFX4_RVT
*C2_R1_C1 3.931e+00 2.192e-02 3.931e+00 
*LOADS
*RC U48:B 1.724e-01
*END

*R_NET input_arr\[7\] 7.861e+00
*DRIVER input_arr\[7\]
*CELL NBUFFX4_RVT
*C2_R1_C1 3.931e+00 2.192e-02 3.931e+00 
*LOADS
*RC U49:B 1.724e-01
*END

*R_NET input_arr\[6\] 7.861e+00
*DRIVER input_arr\[6\]
*CELL NBUFFX4_RVT
*C2_R1_C1 3.931e+00 2.192e-02 3.931e+00 
*LOADS
*RC U50:B 1.724e-01
*END

*R_NET input_arr\[5\] 7.861e+00
*DRIVER input_arr\[5\]
*CELL NBUFFX4_RVT
*C2_R1_C1 3.931e+00 2.192e-02 3.931e+00 
*LOADS
*RC U51:B 1.724e-01
*END

*R_NET input_arr\[4\] 7.861e+00
*DRIVER input_arr\[4\]
*CELL NBUFFX4_RVT
*C2_R1_C1 3.931e+00 2.192e-02 3.931e+00 
*LOADS
*RC U52:B 1.724e-01
*END

*R_NET input_arr\[3\] 7.861e+00
*DRIVER input_arr\[3\]
*CELL NBUFFX4_RVT
*C2_R1_C1 3.931e+00 2.192e-02 3.931e+00 
*LOADS
*RC U53:B 1.724e-01
*END

*R_NET input_arr\[2\] 7.861e+00
*DRIVER input_arr\[2\]
*CELL NBUFFX4_RVT
*C2_R1_C1 3.931e+00 2.192e-02 3.931e+00 
*LOADS
*RC U41:B 1.724e-01
*END

*R_NET input_arr\[1\] 5.743e+00
*DRIVER input_arr\[1\]
*CELL NBUFFX4_RVT
*C2_R1_C1 2.872e+00 5.002e-02 2.872e+00 
*LOADS
*RC U33:A1 7.011e-02
*RC U36:A3 7.352e-02
*END

*R_NET input_arr\[0\] 2.022e+00
*DRIVER input_arr\[0\]
*CELL NBUFFX4_RVT
*C2_R1_C1 1.011e+00 2.192e-02 1.011e+00 
*LOADS
*RC U35:A2 4.433e-02
*END

*R_NET mean_out\[15\] 3.043e-01
*DRIVER U84:Y
*CELL INVX1_RVT
*C2_R1_C1 1.522e-01 2.192e-02 1.522e-01 
*LOADS
*RC mean_out\[15\] 6.673e-03
*END

*R_NET mean_out\[14\] 3.043e-01
*DRIVER U99:S
*CELL FADDX1_RVT
*C2_R1_C1 1.522e-01 2.192e-02 1.522e-01 
*LOADS
*RC mean_out\[14\] 6.673e-03
*END

*R_NET mean_out\[13\] 3.043e-01
*DRIVER U70:Y
*CELL INVX1_RVT
*C2_R1_C1 1.522e-01 2.192e-02 1.522e-01 
*LOADS
*RC mean_out\[13\] 6.673e-03
*END

*R_NET mean_out\[12\] 3.043e-01
*DRIVER U72:Y
*CELL INVX1_RVT
*C2_R1_C1 1.522e-01 2.192e-02 1.522e-01 
*LOADS
*RC mean_out\[12\] 6.673e-03
*END

*R_NET mean_out\[11\] 3.043e-01
*DRIVER U74:Y
*CELL INVX1_RVT
*C2_R1_C1 1.522e-01 2.192e-02 1.522e-01 
*LOADS
*RC mean_out\[11\] 6.673e-03
*END

*R_NET mean_out\[10\] 3.043e-01
*DRIVER U76:Y
*CELL INVX1_RVT
*C2_R1_C1 1.522e-01 2.192e-02 1.522e-01 
*LOADS
*RC mean_out\[10\] 6.673e-03
*END

*R_NET mean_out\[9\] 3.043e-01
*DRIVER U78:Y
*CELL INVX1_RVT
*C2_R1_C1 1.522e-01 2.192e-02 1.522e-01 
*LOADS
*RC mean_out\[9\] 6.673e-03
*END

*R_NET mean_out\[8\] 3.043e-01
*DRIVER U80:Y
*CELL INVX1_RVT
*C2_R1_C1 1.522e-01 2.192e-02 1.522e-01 
*LOADS
*RC mean_out\[8\] 6.673e-03
*END

*R_NET mean_out\[7\] 3.043e-01
*DRIVER U86:Y
*CELL INVX1_RVT
*C2_R1_C1 1.522e-01 2.192e-02 1.522e-01 
*LOADS
*RC mean_out\[7\] 6.673e-03
*END

*R_NET mean_out\[6\] 3.043e-01
*DRIVER U88:Y
*CELL INVX1_RVT
*C2_R1_C1 1.522e-01 2.192e-02 1.522e-01 
*LOADS
*RC mean_out\[6\] 6.673e-03
*END

*R_NET mean_out\[5\] 3.043e-01
*DRIVER U90:Y
*CELL INVX1_RVT
*C2_R1_C1 1.522e-01 2.192e-02 1.522e-01 
*LOADS
*RC mean_out\[5\] 6.673e-03
*END

*R_NET mean_out\[4\] 3.043e-01
*DRIVER U92:Y
*CELL INVX1_RVT
*C2_R1_C1 1.522e-01 2.192e-02 1.522e-01 
*LOADS
*RC mean_out\[4\] 6.673e-03
*END

*R_NET mean_out\[3\] 3.043e-01
*DRIVER U94:Y
*CELL INVX1_RVT
*C2_R1_C1 1.522e-01 2.192e-02 1.522e-01 
*LOADS
*RC mean_out\[3\] 6.673e-03
*END

*R_NET mean_out\[2\] 3.043e-01
*DRIVER U96:Y
*CELL INVX1_RVT
*C2_R1_C1 1.522e-01 2.192e-02 1.522e-01 
*LOADS
*RC mean_out\[2\] 6.673e-03
*END

*R_NET mean_out\[1\] 3.043e-01
*DRIVER U98:Y
*CELL INVX1_RVT
*C2_R1_C1 1.522e-01 2.192e-02 1.522e-01 
*LOADS
*RC mean_out\[1\] 6.673e-03
*END

*R_NET mean_out\[0\] 3.043e-01
*DRIVER U38:Y
*CELL INVX1_RVT
*C2_R1_C1 1.522e-01 2.192e-02 1.522e-01 
*LOADS
*RC mean_out\[0\] 6.673e-03
*END

*R_NET n1 2.541e+00
*DRIVER U1:Y
*CELL INVX1_RVT
*C2_R1_C1 1.271e+00 2.192e-02 1.271e+00 
*LOADS
*RC U36:A2 5.572e-02
*END

*R_NET n2 6.129e+00
*DRIVER U37:S
*CELL FADDX1_RVT
*C2_R1_C1 3.064e+00 5.002e-02 3.064e+00 
*LOADS
*RC U2:A 9.252e-02
*RC U36:A1 6.076e-02
*END

*R_NET n3 5.999e+00
*DRIVER U35:Y
*CELL NAND2X0_RVT
*C2_R1_C1 2.999e+00 5.002e-02 2.999e+00 
*LOADS
*RC U1:A 9.252e-02
*RC U27:A4 5.751e-02
*END

*R_NET n4 2.675e+00
*DRIVER U2:Y
*CELL INVX1_RVT
*C2_R1_C1 1.338e+00 2.192e-02 1.338e+00 
*LOADS
*RC U27:A3 5.865e-02
*END

*R_NET n5 2.096e+00
*DRIVER U36:Y
*CELL OAI22X1_RVT
*C2_R1_C1 1.048e+00 2.192e-02 1.048e+00 
*LOADS
*RC U27:A2 4.594e-02
*END

*R_NET n6 5.965e+00
*DRIVER U34:Y
*CELL AND2X1_RVT
*C2_R1_C1 2.982e+00 2.192e-02 2.982e+00 
*LOADS
*RC U37:CI 1.308e-01
*END

*R_NET n7 2.736e+00
*DRIVER U55:S
*CELL FADDX1_RVT
*C2_R1_C1 1.368e+00 2.192e-02 1.368e+00 
*LOADS
*RC U26:A 5.999e-02
*END

*R_NET n8 3.699e+00
*DRIVER U41:S
*CELL FADDX1_RVT
*C2_R1_C1 1.849e+00 2.192e-02 1.849e+00 
*LOADS
*RC U29:A 8.109e-02
*END

*R_NET n9 3.699e+00
*DRIVER U54:S
*CELL FADDX1_RVT
*C2_R1_C1 1.849e+00 2.192e-02 1.849e+00 
*LOADS
*RC U38:A 8.109e-02
*END

*R_NET n10 8.106e+00
*DRIVER U33:Y
*CELL AND2X1_RVT
*C2_R1_C1 4.053e+00 5.002e-02 4.053e+00 
*LOADS
*RC U27:A1 5.353e-02
*RC U41:CI 1.492e-01
*END

*R_NET n11 2.736e+00
*DRIVER U81:S
*CELL FADDX1_RVT
*C2_R1_C1 1.368e+00 2.192e-02 1.368e+00 
*LOADS
*RC U5:A 5.999e-02
*END

*R_NET n12 5.965e+00
*DRIVER U43:CO
*CELL FADDX1_RVT
*C2_R1_C1 2.982e+00 2.192e-02 2.982e+00 
*LOADS
*RC U42:CI 1.308e-01
*END

*R_NET n13 2.736e+00
*DRIVER U42:S
*CELL FADDX1_RVT
*C2_R1_C1 1.368e+00 2.192e-02 1.368e+00 
*LOADS
*RC U7:A 5.999e-02
*END

*R_NET n14 5.965e+00
*DRIVER U44:CO
*CELL FADDX1_RVT
*C2_R1_C1 2.982e+00 2.192e-02 2.982e+00 
*LOADS
*RC U43:CI 1.308e-01
*END

*R_NET n15 2.736e+00
*DRIVER U43:S
*CELL FADDX1_RVT
*C2_R1_C1 1.368e+00 2.192e-02 1.368e+00 
*LOADS
*RC U8:A 5.999e-02
*END

*R_NET n16 5.965e+00
*DRIVER U45:CO
*CELL FADDX1_RVT
*C2_R1_C1 2.982e+00 2.192e-02 2.982e+00 
*LOADS
*RC U44:CI 1.308e-01
*END

*R_NET n17 2.736e+00
*DRIVER U44:S
*CELL FADDX1_RVT
*C2_R1_C1 1.368e+00 2.192e-02 1.368e+00 
*LOADS
*RC U10:A 5.999e-02
*END

*R_NET n18 5.965e+00
*DRIVER U46:CO
*CELL FADDX1_RVT
*C2_R1_C1 2.982e+00 2.192e-02 2.982e+00 
*LOADS
*RC U45:CI 1.308e-01
*END

*R_NET n19 3.699e+00
*DRIVER U45:S
*CELL FADDX1_RVT
*C2_R1_C1 1.849e+00 2.192e-02 1.849e+00 
*LOADS
*RC U31:A 8.109e-02
*END

*R_NET n20 5.965e+00
*DRIVER U47:CO
*CELL FADDX1_RVT
*C2_R1_C1 2.982e+00 2.192e-02 2.982e+00 
*LOADS
*RC U46:CI 1.308e-01
*END

*R_NET n21 2.736e+00
*DRIVER U46:S
*CELL FADDX1_RVT
*C2_R1_C1 1.368e+00 2.192e-02 1.368e+00 
*LOADS
*RC U14:A 5.999e-02
*END

*R_NET n22 5.965e+00
*DRIVER U48:CO
*CELL FADDX1_RVT
*C2_R1_C1 2.982e+00 2.192e-02 2.982e+00 
*LOADS
*RC U47:CI 1.308e-01
*END

*R_NET n23 2.736e+00
*DRIVER U47:S
*CELL FADDX1_RVT
*C2_R1_C1 1.368e+00 2.192e-02 1.368e+00 
*LOADS
*RC U15:A 5.999e-02
*END

*R_NET n24 5.965e+00
*DRIVER U49:CO
*CELL FADDX1_RVT
*C2_R1_C1 2.982e+00 2.192e-02 2.982e+00 
*LOADS
*RC U48:CI 1.308e-01
*END

*R_NET n25 2.736e+00
*DRIVER U48:S
*CELL FADDX1_RVT
*C2_R1_C1 1.368e+00 2.192e-02 1.368e+00 
*LOADS
*RC U17:A 5.999e-02
*END

*R_NET n26 5.965e+00
*DRIVER U50:CO
*CELL FADDX1_RVT
*C2_R1_C1 2.982e+00 2.192e-02 2.982e+00 
*LOADS
*RC U49:CI 1.308e-01
*END

*R_NET n27 2.736e+00
*DRIVER U49:S
*CELL FADDX1_RVT
*C2_R1_C1 1.368e+00 2.192e-02 1.368e+00 
*LOADS
*RC U20:A 5.999e-02
*END

*R_NET n28 5.965e+00
*DRIVER U51:CO
*CELL FADDX1_RVT
*C2_R1_C1 2.982e+00 2.192e-02 2.982e+00 
*LOADS
*RC U50:CI 1.308e-01
*END

*R_NET n29 2.736e+00
*DRIVER U50:S
*CELL FADDX1_RVT
*C2_R1_C1 1.368e+00 2.192e-02 1.368e+00 
*LOADS
*RC U22:A 5.999e-02
*END

*R_NET n30 5.965e+00
*DRIVER U52:CO
*CELL FADDX1_RVT
*C2_R1_C1 2.982e+00 2.192e-02 2.982e+00 
*LOADS
*RC U51:CI 1.308e-01
*END

*R_NET n31 2.736e+00
*DRIVER U51:S
*CELL FADDX1_RVT
*C2_R1_C1 1.368e+00 2.192e-02 1.368e+00 
*LOADS
*RC U23:A 5.999e-02
*END

*R_NET n32 5.965e+00
*DRIVER U53:CO
*CELL FADDX1_RVT
*C2_R1_C1 2.982e+00 2.192e-02 2.982e+00 
*LOADS
*RC U52:CI 1.308e-01
*END

*R_NET n33 2.736e+00
*DRIVER U52:S
*CELL FADDX1_RVT
*C2_R1_C1 1.368e+00 2.192e-02 1.368e+00 
*LOADS
*RC U25:A 5.999e-02
*END

*R_NET n34 5.965e+00
*DRIVER U41:CO
*CELL FADDX1_RVT
*C2_R1_C1 2.982e+00 2.192e-02 2.982e+00 
*LOADS
*RC U53:CI 1.308e-01
*END

*R_NET n35 2.736e+00
*DRIVER U53:S
*CELL FADDX1_RVT
*C2_R1_C1 1.368e+00 2.192e-02 1.368e+00 
*LOADS
*RC U28:A 5.999e-02
*END

*R_NET n36 5.965e+00
*DRIVER U29:Y
*CELL INVX1_RVT
*C2_R1_C1 2.982e+00 2.192e-02 2.982e+00 
*LOADS
*RC U54:CI 1.308e-01
*END

*R_NET n37 7.861e+00
*DRIVER U26:Y
*CELL INVX0_RVT
*C2_R1_C1 3.931e+00 2.192e-02 3.931e+00 
*LOADS
*RC U54:B 1.724e-01
*END

*R_NET n38 8.143e+00
*DRIVER U27:Y
*CELL OA22X1_RVT
*C2_R1_C1 4.072e+00 2.192e-02 4.072e+00 
*LOADS
*RC U54:A 1.785e-01
*END

*R_NET n39 5.965e+00
*DRIVER U37:CO
*CELL FADDX1_RVT
*C2_R1_C1 2.982e+00 2.192e-02 2.982e+00 
*LOADS
*RC U55:CI 1.308e-01
*END

*R_NET n40 2.736e+00
*DRIVER U56:S
*CELL FADDX1_RVT
*C2_R1_C1 1.368e+00 2.192e-02 1.368e+00 
*LOADS
*RC U24:A 5.999e-02
*END

*R_NET n41 5.965e+00
*DRIVER U55:CO
*CELL FADDX1_RVT
*C2_R1_C1 2.982e+00 2.192e-02 2.982e+00 
*LOADS
*RC U56:CI 1.308e-01
*END

*R_NET n42 3.699e+00
*DRIVER U57:S
*CELL FADDX1_RVT
*C2_R1_C1 1.849e+00 2.192e-02 1.849e+00 
*LOADS
*RC U30:A 8.109e-02
*END

*R_NET n43 5.965e+00
*DRIVER U56:CO
*CELL FADDX1_RVT
*C2_R1_C1 2.982e+00 2.192e-02 2.982e+00 
*LOADS
*RC U57:CI 1.308e-01
*END

*R_NET n44 2.736e+00
*DRIVER U58:S
*CELL FADDX1_RVT
*C2_R1_C1 1.368e+00 2.192e-02 1.368e+00 
*LOADS
*RC U21:A 5.999e-02
*END

*R_NET n45 5.965e+00
*DRIVER U57:CO
*CELL FADDX1_RVT
*C2_R1_C1 2.982e+00 2.192e-02 2.982e+00 
*LOADS
*RC U58:CI 1.308e-01
*END

*R_NET n46 2.736e+00
*DRIVER U59:S
*CELL FADDX1_RVT
*C2_R1_C1 1.368e+00 2.192e-02 1.368e+00 
*LOADS
*RC U19:A 5.999e-02
*END

*R_NET n47 5.965e+00
*DRIVER U58:CO
*CELL FADDX1_RVT
*C2_R1_C1 2.982e+00 2.192e-02 2.982e+00 
*LOADS
*RC U59:CI 1.308e-01
*END

*R_NET n48 2.736e+00
*DRIVER U60:S
*CELL FADDX1_RVT
*C2_R1_C1 1.368e+00 2.192e-02 1.368e+00 
*LOADS
*RC U18:A 5.999e-02
*END

*R_NET n49 5.965e+00
*DRIVER U59:CO
*CELL FADDX1_RVT
*C2_R1_C1 2.982e+00 2.192e-02 2.982e+00 
*LOADS
*RC U60:CI 1.308e-01
*END

*R_NET n50 2.736e+00
*DRIVER U61:S
*CELL FADDX1_RVT
*C2_R1_C1 1.368e+00 2.192e-02 1.368e+00 
*LOADS
*RC U16:A 5.999e-02
*END

*R_NET n51 5.965e+00
*DRIVER U60:CO
*CELL FADDX1_RVT
*C2_R1_C1 2.982e+00 2.192e-02 2.982e+00 
*LOADS
*RC U61:CI 1.308e-01
*END

*R_NET n52 2.736e+00
*DRIVER U62:S
*CELL FADDX1_RVT
*C2_R1_C1 1.368e+00 2.192e-02 1.368e+00 
*LOADS
*RC U13:A 5.999e-02
*END

*R_NET n53 5.965e+00
*DRIVER U61:CO
*CELL FADDX1_RVT
*C2_R1_C1 2.982e+00 2.192e-02 2.982e+00 
*LOADS
*RC U62:CI 1.308e-01
*END

*R_NET n54 2.736e+00
*DRIVER U63:S
*CELL FADDX1_RVT
*C2_R1_C1 1.368e+00 2.192e-02 1.368e+00 
*LOADS
*RC U12:A 5.999e-02
*END

*R_NET n55 5.965e+00
*DRIVER U62:CO
*CELL FADDX1_RVT
*C2_R1_C1 2.982e+00 2.192e-02 2.982e+00 
*LOADS
*RC U63:CI 1.308e-01
*END

*R_NET n56 2.736e+00
*DRIVER U64:S
*CELL FADDX1_RVT
*C2_R1_C1 1.368e+00 2.192e-02 1.368e+00 
*LOADS
*RC U11:A 5.999e-02
*END

*R_NET n57 5.965e+00
*DRIVER U63:CO
*CELL FADDX1_RVT
*C2_R1_C1 2.982e+00 2.192e-02 2.982e+00 
*LOADS
*RC U64:CI 1.308e-01
*END

*R_NET n58 2.736e+00
*DRIVER U65:S
*CELL FADDX1_RVT
*C2_R1_C1 1.368e+00 2.192e-02 1.368e+00 
*LOADS
*RC U9:A 5.999e-02
*END

*R_NET n59 5.965e+00
*DRIVER U64:CO
*CELL FADDX1_RVT
*C2_R1_C1 2.982e+00 2.192e-02 2.982e+00 
*LOADS
*RC U65:CI 1.308e-01
*END

*R_NET n60 2.736e+00
*DRIVER U66:S
*CELL FADDX1_RVT
*C2_R1_C1 1.368e+00 2.192e-02 1.368e+00 
*LOADS
*RC U6:A 5.999e-02
*END

*R_NET n61 5.965e+00
*DRIVER U65:CO
*CELL FADDX1_RVT
*C2_R1_C1 2.982e+00 2.192e-02 2.982e+00 
*LOADS
*RC U66:CI 1.308e-01
*END

*R_NET n62 2.736e+00
*DRIVER U69:S
*CELL FADDX1_RVT
*C2_R1_C1 1.368e+00 2.192e-02 1.368e+00 
*LOADS
*RC U4:A 5.999e-02
*END

*R_NET n63 5.965e+00
*DRIVER U66:CO
*CELL FADDX1_RVT
*C2_R1_C1 2.982e+00 2.192e-02 2.982e+00 
*LOADS
*RC U69:CI 1.308e-01
*END

*R_NET n64 2.736e+00
*DRIVER U83:S
*CELL FADDX1_RVT
*C2_R1_C1 1.368e+00 2.192e-02 1.368e+00 
*LOADS
*RC U3:A 5.999e-02
*END

*R_NET n65 3.699e+00
*DRIVER U82:S
*CELL FADDX1_RVT
*C2_R1_C1 1.849e+00 2.192e-02 1.849e+00 
*LOADS
*RC U70:A 8.109e-02
*END

*R_NET n66 5.965e+00
*DRIVER U4:Y
*CELL INVX0_RVT
*C2_R1_C1 2.982e+00 2.192e-02 2.982e+00 
*LOADS
*RC U71:CI 1.308e-01
*END

*R_NET n67 7.861e+00
*DRIVER U73:CO
*CELL FADDX1_RVT
*C2_R1_C1 3.931e+00 2.192e-02 3.931e+00 
*LOADS
*RC U71:B 1.724e-01
*END

*R_NET n68 8.143e+00
*DRIVER U7:Y
*CELL INVX0_RVT
*C2_R1_C1 4.072e+00 2.192e-02 4.072e+00 
*LOADS
*RC U71:A 1.785e-01
*END

*R_NET n69 3.699e+00
*DRIVER U71:S
*CELL FADDX1_RVT
*C2_R1_C1 1.849e+00 2.192e-02 1.849e+00 
*LOADS
*RC U72:A 8.109e-02
*END

*R_NET n70 5.965e+00
*DRIVER U6:Y
*CELL INVX0_RVT
*C2_R1_C1 2.982e+00 2.192e-02 2.982e+00 
*LOADS
*RC U73:CI 1.308e-01
*END

*R_NET n71 7.861e+00
*DRIVER U75:CO
*CELL FADDX1_RVT
*C2_R1_C1 3.931e+00 2.192e-02 3.931e+00 
*LOADS
*RC U73:B 1.724e-01
*END

*R_NET n72 8.143e+00
*DRIVER U8:Y
*CELL INVX0_RVT
*C2_R1_C1 4.072e+00 2.192e-02 4.072e+00 
*LOADS
*RC U73:A 1.785e-01
*END

*R_NET n73 3.699e+00
*DRIVER U73:S
*CELL FADDX1_RVT
*C2_R1_C1 1.849e+00 2.192e-02 1.849e+00 
*LOADS
*RC U74:A 8.109e-02
*END

*R_NET n74 5.965e+00
*DRIVER U9:Y
*CELL INVX0_RVT
*C2_R1_C1 2.982e+00 2.192e-02 2.982e+00 
*LOADS
*RC U75:CI 1.308e-01
*END

*R_NET n75 7.861e+00
*DRIVER U77:CO
*CELL FADDX1_RVT
*C2_R1_C1 3.931e+00 2.192e-02 3.931e+00 
*LOADS
*RC U75:B 1.724e-01
*END

*R_NET n76 8.143e+00
*DRIVER U10:Y
*CELL INVX0_RVT
*C2_R1_C1 4.072e+00 2.192e-02 4.072e+00 
*LOADS
*RC U75:A 1.785e-01
*END

*R_NET n77 3.699e+00
*DRIVER U75:S
*CELL FADDX1_RVT
*C2_R1_C1 1.849e+00 2.192e-02 1.849e+00 
*LOADS
*RC U76:A 8.109e-02
*END

*R_NET n78 5.965e+00
*DRIVER U11:Y
*CELL INVX0_RVT
*C2_R1_C1 2.982e+00 2.192e-02 2.982e+00 
*LOADS
*RC U77:CI 1.308e-01
*END

*R_NET n79 7.861e+00
*DRIVER U79:CO
*CELL FADDX1_RVT
*C2_R1_C1 3.931e+00 2.192e-02 3.931e+00 
*LOADS
*RC U77:B 1.724e-01
*END

*R_NET n80 8.143e+00
*DRIVER U31:Y
*CELL INVX1_RVT
*C2_R1_C1 4.072e+00 2.192e-02 4.072e+00 
*LOADS
*RC U77:A 1.785e-01
*END

*R_NET n81 3.699e+00
*DRIVER U77:S
*CELL FADDX1_RVT
*C2_R1_C1 1.849e+00 2.192e-02 1.849e+00 
*LOADS
*RC U78:A 8.109e-02
*END

*R_NET n82 5.965e+00
*DRIVER U12:Y
*CELL INVX0_RVT
*C2_R1_C1 2.982e+00 2.192e-02 2.982e+00 
*LOADS
*RC U79:CI 1.308e-01
*END

*R_NET n83 7.861e+00
*DRIVER U85:CO
*CELL FADDX1_RVT
*C2_R1_C1 3.931e+00 2.192e-02 3.931e+00 
*LOADS
*RC U79:B 1.724e-01
*END

*R_NET n84 8.143e+00
*DRIVER U14:Y
*CELL INVX0_RVT
*C2_R1_C1 4.072e+00 2.192e-02 4.072e+00 
*LOADS
*RC U79:A 1.785e-01
*END

*R_NET n85 3.699e+00
*DRIVER U79:S
*CELL FADDX1_RVT
*C2_R1_C1 1.849e+00 2.192e-02 1.849e+00 
*LOADS
*RC U80:A 8.109e-02
*END

*R_NET n86 5.965e+00
*DRIVER U42:CO
*CELL FADDX1_RVT
*C2_R1_C1 2.982e+00 2.192e-02 2.982e+00 
*LOADS
*RC U81:CI 1.308e-01
*END

*R_NET n87 7.861e+00
*DRIVER U40:Y
*CELL INVX1_RVT
*C2_R1_C1 3.931e+00 2.192e-02 3.931e+00 
*LOADS
*RC U81:B 1.724e-01
*END

*R_NET n88 8.143e+00
*DRIVER U39:Y
*CELL INVX1_RVT
*C2_R1_C1 4.072e+00 2.192e-02 4.072e+00 
*LOADS
*RC U81:A 1.785e-01
*END

*R_NET n89 5.965e+00
*DRIVER U3:Y
*CELL INVX0_RVT
*C2_R1_C1 2.982e+00 2.192e-02 2.982e+00 
*LOADS
*RC U82:CI 1.308e-01
*END

*R_NET n90 7.861e+00
*DRIVER U71:CO
*CELL FADDX1_RVT
*C2_R1_C1 3.931e+00 2.192e-02 3.931e+00 
*LOADS
*RC U82:B 1.724e-01
*END

*R_NET n91 8.143e+00
*DRIVER U5:Y
*CELL INVX0_RVT
*C2_R1_C1 4.072e+00 2.192e-02 4.072e+00 
*LOADS
*RC U82:A 1.785e-01
*END

*R_NET n92 3.699e+00
*DRIVER U82:CO
*CELL FADDX1_RVT
*C2_R1_C1 1.849e+00 2.192e-02 1.849e+00 
*LOADS
*RC U32:A 8.109e-02
*END

*R_NET n93 5.965e+00
*DRIVER U69:CO
*CELL FADDX1_RVT
*C2_R1_C1 2.982e+00 2.192e-02 2.982e+00 
*LOADS
*RC U83:CI 1.308e-01
*END

*R_NET n94 7.861e+00
*DRIVER U68:Y
*CELL INVX1_RVT
*C2_R1_C1 3.931e+00 2.192e-02 3.931e+00 
*LOADS
*RC U83:B 1.724e-01
*END

*R_NET n95 8.143e+00
*DRIVER U67:Y
*CELL INVX1_RVT
*C2_R1_C1 4.072e+00 2.192e-02 4.072e+00 
*LOADS
*RC U83:A 1.785e-01
*END

*R_NET n96 3.699e+00
*DRIVER U99:CO
*CELL FADDX1_RVT
*C2_R1_C1 1.849e+00 2.192e-02 1.849e+00 
*LOADS
*RC U84:A 8.109e-02
*END

*R_NET n97 5.965e+00
*DRIVER U13:Y
*CELL INVX0_RVT
*C2_R1_C1 2.982e+00 2.192e-02 2.982e+00 
*LOADS
*RC U85:CI 1.308e-01
*END

*R_NET n98 7.861e+00
*DRIVER U87:CO
*CELL FADDX1_RVT
*C2_R1_C1 3.931e+00 2.192e-02 3.931e+00 
*LOADS
*RC U85:B 1.724e-01
*END

*R_NET n99 8.143e+00
*DRIVER U15:Y
*CELL INVX0_RVT