*SPEF "IEEE 1481-1999"
*DESIGN "vec_div"
*DATE "Thu Dec  5 18:18:39 2024"
*VENDOR "SYNOPSYS INC"
*PROGRAM "Synopsys Design Compiler cmos"
*VERSION "V-2023.12-SP5"
*DESIGN_FLOW "SYNTHESIS"
*DIVIDER /
*DELIMITER :
*BUS_DELIMITER []
*T_UNIT 1.0 NS
*C_UNIT 0.0010 PF
*R_UNIT 1000.0 KOHM
*L_UNIT 1.0 HENRY

*PORTS

clk I *L 0.000e+00 *S 3.801e-03 2.622e-02 *D NBUFFX4_RVT 
rst I *L 0.000e+00 *S 5.163e-03 1.306e-02 *D NBUFFX4_RVT 
start I *L 0.000e+00 *S 6.077e-03 1.328e-02 *D NBUFFX4_RVT 
busy O *L 3.000e-01 *S 9.422e-03 1.862e-02 
done O *L 3.000e-01 *S 1.906e-03 3.272e-03 
in_1\[63\] I *L 0.000e+00 *S 2.029e-03 3.991e-02 *D NBUFFX4_RVT 
in_1\[62\] I *L 0.000e+00 *S 2.029e-03 3.991e-02 *D NBUFFX4_RVT 
in_1\[61\] I *L 0.000e+00 *S 2.029e-03 3.991e-02 *D NBUFFX4_RVT 
in_1\[60\] I *L 0.000e+00 *S 2.029e-03 3.991e-02 *D NBUFFX4_RVT 
in_1\[59\] I *L 0.000e+00 *S 2.029e-03 3.991e-02 *D NBUFFX4_RVT 
in_1\[58\] I *L 0.000e+00 *S 2.029e-03 3.991e-02 *D NBUFFX4_RVT 
in_1\[57\] I *L 0.000e+00 *S 2.029e-03 3.991e-02 *D NBUFFX4_RVT 
in_1\[56\] I *L 0.000e+00 *S 2.029e-03 3.991e-02 *D NBUFFX4_RVT 
in_1\[55\] I *L 0.000e+00 *S 2.029e-03 3.991e-02 *D NBUFFX4_RVT 
in_1\[54\] I *L 0.000e+00 *S 2.029e-03 3.991e-02 *D NBUFFX4_RVT 
in_1\[53\] I *L 0.000e+00 *S 2.029e-03 3.991e-02 *D NBUFFX4_RVT 
in_1\[52\] I *L 0.000e+00 *S 2.029e-03 3.991e-02 *D NBUFFX4_RVT 
in_1\[51\] I *L 0.000e+00 *S 2.029e-03 3.991e-02 *D NBUFFX4_RVT 
in_1\[50\] I *L 0.000e+00 *S 2.029e-03 3.991e-02 *D NBUFFX4_RVT 
in_1\[49\] I *L 0.000e+00 *S 2.029e-03 3.991e-02 *D NBUFFX4_RVT 
in_1\[48\] I *L 0.000e+00 *S 2.029e-03 3.991e-02 *D NBUFFX4_RVT 
in_1\[47\] I *L 0.000e+00 *S 2.029e-03 3.991e-02 *D NBUFFX4_RVT 
in_1\[46\] I *L 0.000e+00 *S 2.029e-03 3.991e-02 *D NBUFFX4_RVT 
in_1\[45\] I *L 0.000e+00 *S 2.029e-03 3.991e-02 *D NBUFFX4_RVT 
in_1\[44\] I *L 0.000e+00 *S 2.029e-03 3.991e-02 *D NBUFFX4_RVT 
in_1\[43\] I *L 0.000e+00 *S 2.029e-03 3.991e-02 *D NBUFFX4_RVT 
in_1\[42\] I *L 0.000e+00 *S 2.029e-03 3.991e-02 *D NBUFFX4_RVT 
in_1\[41\] I *L 0.000e+00 *S 2.029e-03 3.991e-02 *D NBUFFX4_RVT 
in_1\[40\] I *L 0.000e+00 *S 2.029e-03 3.991e-02 *D NBUFFX4_RVT 
in_1\[39\] I *L 0.000e+00 *S 2.029e-03 3.991e-02 *D NBUFFX4_RVT 
in_1\[38\] I *L 0.000e+00 *S 2.029e-03 3.991e-02 *D NBUFFX4_RVT 
in_1\[37\] I *L 0.000e+00 *S 2.029e-03 3.991e-02 *D NBUFFX4_RVT 
in_1\[36\] I *L 0.000e+00 *S 2.029e-03 3.991e-02 *D NBUFFX4_RVT 
in_1\[35\] I *L 0.000e+00 *S 2.029e-03 3.991e-02 *D NBUFFX4_RVT 
in_1\[34\] I *L 0.000e+00 *S 2.029e-03 3.991e-02 *D NBUFFX4_RVT 
in_1\[33\] I *L 0.000e+00 *S 2.029e-03 3.991e-02 *D NBUFFX4_RVT 
in_1\[32\] I *L 0.000e+00 *S 2.029e-03 3.991e-02 *D NBUFFX4_RVT 
in_1\[31\] I *L 0.000e+00 *S 2.029e-03 3.991e-02 *D NBUFFX4_RVT 
in_1\[30\] I *L 0.000e+00 *S 2.029e-03 3.991e-02 *D NBUFFX4_RVT 
in_1\[29\] I *L 0.000e+00 *S 2.029e-03 3.991e-02 *D NBUFFX4_RVT 
in_1\[28\] I *L 0.000e+00 *S 2.029e-03 3.991e-02 *D NBUFFX4_RVT 
in_1\[27\] I *L 0.000e+00 *S 2.029e-03 3.991e-02 *D NBUFFX4_RVT 
in_1\[26\] I *L 0.000e+00 *S 2.029e-03 3.991e-02 *D NBUFFX4_RVT 
in_1\[25\] I *L 0.000e+00 *S 2.029e-03 3.991e-02 *D NBUFFX4_RVT 
in_1\[24\] I *L 0.000e+00 *S 2.029e-03 3.991e-02 *D NBUFFX4_RVT 
in_1\[23\] I *L 0.000e+00 *S 2.029e-03 3.991e-02 *D NBUFFX4_RVT 
in_1\[22\] I *L 0.000e+00 *S 2.029e-03 3.991e-02 *D NBUFFX4_RVT 
in_1\[21\] I *L 0.000e+00 *S 2.029e-03 3.991e-02 *D NBUFFX4_RVT 
in_1\[20\] I *L 0.000e+00 *S 2.029e-03 3.991e-02 *D NBUFFX4_RVT 
in_1\[19\] I *L 0.000e+00 *S 2.029e-03 3.991e-02 *D NBUFFX4_RVT 
in_1\[18\] I *L 0.000e+00 *S 2.029e-03 3.991e-02 *D NBUFFX4_RVT 
in_1\[17\] I *L 0.000e+00 *S 2.029e-03 3.991e-02 *D NBUFFX4_RVT 
in_1\[16\] I *L 0.000e+00 *S 2.029e-03 3.991e-02 *D NBUFFX4_RVT 
in_1\[15\] I *L 0.000e+00 *S 2.029e-03 3.991e-02 *D NBUFFX4_RVT 
in_1\[14\] I *L 0.000e+00 *S 2.029e-03 3.991e-02 *D NBUFFX4_RVT 
in_1\[13\] I *L 0.000e+00 *S 2.029e-03 3.991e-02 *D NBUFFX4_RVT 
in_1\[12\] I *L 0.000e+00 *S 2.029e-03 3.991e-02 *D NBUFFX4_RVT 
in_1\[11\] I *L 0.000e+00 *S 2.029e-03 3.991e-02 *D NBUFFX4_RVT 
in_1\[10\] I *L 0.000e+00 *S 2.029e-03 3.991e-02 *D NBUFFX4_RVT 
in_1\[9\] I *L 0.000e+00 *S 2.029e-03 3.991e-02 *D NBUFFX4_RVT 
in_1\[8\] I *L 0.000e+00 *S 2.029e-03 3.991e-02 *D NBUFFX4_RVT 
in_1\[7\] I *L 0.000e+00 *S 2.029e-03 3.991e-02 *D NBUFFX4_RVT 
in_1\[6\] I *L 0.000e+00 *S 2.029e-03 3.991e-02 *D NBUFFX4_RVT 
in_1\[5\] I *L 0.000e+00 *S 2.029e-03 3.991e-02 *D NBUFFX4_RVT 
in_1\[4\] I *L 0.000e+00 *S 2.029e-03 3.991e-02 *D NBUFFX4_RVT 
in_1\[3\] I *L 0.000e+00 *S 2.029e-03 3.991e-02 *D NBUFFX4_RVT 
in_1\[2\] I *L 0.000e+00 *S 2.029e-03 3.991e-02 *D NBUFFX4_RVT 
in_1\[1\] I *L 0.000e+00 *S 2.029e-03 3.991e-02 *D NBUFFX4_RVT 
in_1\[0\] I *L 0.000e+00 *S 2.029e-03 3.991e-02 *D NBUFFX4_RVT 
in_2\[63\] I *L 0.000e+00 *S 2.029e-03 3.991e-02 *D NBUFFX4_RVT 
in_2\[62\] I *L 0.000e+00 *S 2.029e-03 3.991e-02 *D NBUFFX4_RVT 
in_2\[61\] I *L 0.000e+00 *S 2.029e-03 3.991e-02 *D NBUFFX4_RVT 
in_2\[60\] I *L 0.000e+00 *S 2.029e-03 3.991e-02 *D NBUFFX4_RVT 
in_2\[59\] I *L 0.000e+00 *S 2.029e-03 3.991e-02 *D NBUFFX4_RVT 
in_2\[58\] I *L 0.000e+00 *S 2.029e-03 3.991e-02 *D NBUFFX4_RVT 
in_2\[57\] I *L 0.000e+00 *S 2.029e-03 3.991e-02 *D NBUFFX4_RVT 
in_2\[56\] I *L 0.000e+00 *S 2.029e-03 3.991e-02 *D NBUFFX4_RVT 
in_2\[55\] I *L 0.000e+00 *S 2.029e-03 3.991e-02 *D NBUFFX4_RVT 
in_2\[54\] I *L 0.000e+00 *S 2.029e-03 3.991e-02 *D NBUFFX4_RVT 
in_2\[53\] I *L 0.000e+00 *S 2.029e-03 3.991e-02 *D NBUFFX4_RVT 
in_2\[52\] I *L 0.000e+00 *S 2.029e-03 3.991e-02 *D NBUFFX4_RVT 
in_2\[51\] I *L 0.000e+00 *S 2.029e-03 3.991e-02 *D NBUFFX4_RVT 
in_2\[50\] I *L 0.000e+00 *S 2.029e-03 3.991e-02 *D NBUFFX4_RVT 
in_2\[49\] I *L 0.000e+00 *S 2.029e-03 3.991e-02 *D NBUFFX4_RVT 
in_2\[48\] I *L 0.000e+00 *S 2.029e-03 3.991e-02 *D NBUFFX4_RVT 
in_2\[47\] I *L 0.000e+00 *S 2.029e-03 3.991e-02 *D NBUFFX4_RVT 
in_2\[46\] I *L 0.000e+00 *S 2.029e-03 3.991e-02 *D NBUFFX4_RVT 
in_2\[45\] I *L 0.000e+00 *S 2.029e-03 3.991e-02 *D NBUFFX4_RVT 
in_2\[44\] I *L 0.000e+00 *S 2.029e-03 3.991e-02 *D NBUFFX4_RVT 
in_2\[43\] I *L 0.000e+00 *S 2.029e-03 3.991e-02 *D NBUFFX4_RVT 
in_2\[42\] I *L 0.000e+00 *S 2.029e-03 3.991e-02 *D NBUFFX4_RVT 
in_2\[41\] I *L 0.000e+00 *S 2.029e-03 3.991e-02 *D NBUFFX4_RVT 
in_2\[40\] I *L 0.000e+00 *S 2.029e-03 3.991e-02 *D NBUFFX4_RVT 
in_2\[39\] I *L 0.000e+00 *S 2.029e-03 3.991e-02 *D NBUFFX4_RVT 
in_2\[38\] I *L 0.000e+00 *S 2.029e-03 3.991e-02 *D NBUFFX4_RVT 
in_2\[37\] I *L 0.000e+00 *S 2.029e-03 3.991e-02 *D NBUFFX4_RVT 
in_2\[36\] I *L 0.000e+00 *S 2.029e-03 3.991e-02 *D NBUFFX4_RVT 
in_2\[35\] I *L 0.000e+00 *S 2.029e-03 3.991e-02 *D NBUFFX4_RVT 
in_2\[34\] I *L 0.000e+00 *S 2.029e-03 3.991e-02 *D NBUFFX4_RVT 
in_2\[33\] I *L 0.000e+00 *S 2.029e-03 3.991e-02 *D NBUFFX4_RVT 
in_2\[32\] I *L 0.000e+00 *S 2.029e-03 3.991e-02 *D NBUFFX4_RVT 
in_2\[31\] I *L 0.000e+00 *S 2.029e-03 3.991e-02 *D NBUFFX4_RVT 
in_2\[30\] I *L 0.000e+00 *S 2.029e-03 3.991e-02 *D NBUFFX4_RVT 
in_2\[29\] I *L 0.000e+00 *S 2.029e-03 3.991e-02 *D NBUFFX4_RVT 
in_2\[28\] I *L 0.000e+00 *S 2.029e-03 3.991e-02 *D NBUFFX4_RVT 
in_2\[27\] I *L 0.000e+00 *S 2.029e-03 3.991e-02 *D NBUFFX4_RVT 
in_2\[26\] I *L 0.000e+00 *S 2.029e-03 3.991e-02 *D NBUFFX4_RVT 
in_2\[25\] I *L 0.000e+00 *S 2.029e-03 3.991e-02 *D NBUFFX4_RVT 
in_2\[24\] I *L 0.000e+00 *S 2.029e-03 3.991e-02 *D NBUFFX4_RVT 
in_2\[23\] I *L 0.000e+00 *S 2.029e-03 3.991e-02 *D NBUFFX4_RVT 
in_2\[22\] I *L 0.000e+00 *S 2.029e-03 3.991e-02 *D NBUFFX4_RVT 
in_2\[21\] I *L 0.000e+00 *S 2.029e-03 3.991e-02 *D NBUFFX4_RVT 
in_2\[20\] I *L 0.000e+00 *S 2.029e-03 3.991e-02 *D NBUFFX4_RVT 
in_2\[19\] I *L 0.000e+00 *S 2.029e-03 3.991e-02 *D NBUFFX4_RVT 
in_2\[18\] I *L 0.000e+00 *S 2.029e-03 3.991e-02 *D NBUFFX4_RVT 
in_2\[17\] I *L 0.000e+00 *S 2.029e-03 3.991e-02 *D NBUFFX4_RVT 
in_2\[16\] I *L 0.000e+00 *S 2.029e-03 3.991e-02 *D NBUFFX4_RVT 
in_2\[15\] I *L 0.000e+00 *S 2.029e-03 3.991e-02 *D NBUFFX4_RVT 
in_2\[14\] I *L 0.000e+00 *S 2.029e-03 3.991e-02 *D NBUFFX4_RVT 
in_2\[13\] I *L 0.000e+00 *S 2.029e-03 3.991e-02 *D NBUFFX4_RVT 
in_2\[12\] I *L 0.000e+00 *S 2.029e-03 3.991e-02 *D NBUFFX4_RVT 
in_2\[11\] I *L 0.000e+00 *S 2.029e-03 3.991e-02 *D NBUFFX4_RVT 
in_2\[10\] I *L 0.000e+00 *S 2.029e-03 3.991e-02 *D NBUFFX4_RVT 
in_2\[9\] I *L 0.000e+00 *S 2.029e-03 3.991e-02 *D NBUFFX4_RVT 
in_2\[8\] I *L 0.000e+00 *S 2.029e-03 3.991e-02 *D NBUFFX4_RVT 
in_2\[7\] I *L 0.000e+00 *S 2.029e-03 3.991e-02 *D NBUFFX4_RVT 
in_2\[6\] I *L 0.000e+00 *S 2.029e-03 3.991e-02 *D NBUFFX4_RVT 
in_2\[5\] I *L 0.000e+00 *S 2.029e-03 3.991e-02 *D NBUFFX4_RVT 
in_2\[4\] I *L 0.000e+00 *S 2.029e-03 3.991e-02 *D NBUFFX4_RVT 
in_2\[3\] I *L 0.000e+00 *S 2.029e-03 3.991e-02 *D NBUFFX4_RVT 
in_2\[2\] I *L 0.000e+00 *S 2.029e-03 3.991e-02 *D NBUFFX4_RVT 
in_2\[1\] I *L 0.000e+00 *S 2.029e-03 3.991e-02 *D NBUFFX4_RVT 
in_2\[0\] I *L 0.000e+00 *S 2.029e-03 3.991e-02 *D NBUFFX4_RVT 
out\[63\] O *L 3.000e-01 *S 9.582e-03 1.897e-02 
out\[62\] O *L 3.000e-01 *S 9.582e-03 1.897e-02 
out\[61\] O *L 3.000e-01 *S 9.582e-03 1.897e-02 
out\[60\] O *L 3.000e-01 *S 9.582e-03 1.897e-02 
out\[59\] O *L 3.000e-01 *S 9.582e-03 1.897e-02 
out\[58\] O *L 3.000e-01 *S 9.582e-03 1.897e-02 
out\[57\] O *L 3.000e-01 *S 9.582e-03 1.897e-02 
out\[56\] O *L 3.000e-01 *S 9.582e-03 1.897e-02 
out\[55\] O *L 3.000e-01 *S 9.582e-03 1.897e-02 
out\[54\] O *L 3.000e-01 *S 9.582e-03 1.897e-02 
out\[53\] O *L 3.000e-01 *S 9.582e-03 1.897e-02 
out\[52\] O *L 3.000e-01 *S 9.582e-03 1.897e-02 
out\[51\] O *L 3.000e-01 *S 9.582e-03 1.897e-02 
out\[50\] O *L 3.000e-01 *S 9.582e-03 1.897e-02 
out\[49\] O *L 3.000e-01 *S 9.582e-03 1.897e-02 
out\[48\] O *L 3.000e-01 *S 9.582e-03 1.897e-02 
out\[47\] O *L 3.000e-01 *S 9.582e-03 1.897e-02 
out\[46\] O *L 3.000e-01 *S 9.582e-03 1.897e-02 
out\[45\] O *L 3.000e-01 *S 9.582e-03 1.897e-02 
out\[44\] O *L 3.000e-01 *S 9.582e-03 1.897e-02 
out\[43\] O *L 3.000e-01 *S 9.582e-03 1.897e-02 
out\[42\] O *L 3.000e-01 *S 9.582e-03 1.897e-02 
out\[41\] O *L 3.000e-01 *S 9.582e-03 1.897e-02 
out\[40\] O *L 3.000e-01 *S 9.582e-03 1.897e-02 
out\[39\] O *L 3.000e-01 *S 9.582e-03 1.897e-02 
out\[38\] O *L 3.000e-01 *S 9.582e-03 1.897e-02 
out\[37\] O *L 3.000e-01 *S 9.582e-03 1.897e-02 
out\[36\] O *L 3.000e-01 *S 9.582e-03 1.897e-02 
out\[35\] O *L 3.000e-01 *S 9.582e-03 1.897e-02 
out\[34\] O *L 3.000e-01 *S 9.582e-03 1.897e-02 
out\[33\] O *L 3.000e-01 *S 9.582e-03 1.897e-02 
out\[32\] O *L 3.000e-01 *S 9.582e-03 1.897e-02 
out\[31\] O *L 3.000e-01 *S 9.582e-03 1.897e-02 
out\[30\] O *L 3.000e-01 *S 9.582e-03 1.897e-02 
out\[29\] O *L 3.000e-01 *S 9.582e-03 1.897e-02 
out\[28\] O *L 3.000e-01 *S 9.582e-03 1.897e-02 
out\[27\] O *L 3.000e-01 *S 9.582e-03 1.897e-02 
out\[26\] O *L 3.000e-01 *S 9.582e-03 1.897e-02 
out\[25\] O *L 3.000e-01 *S 9.582e-03 1.897e-02 
out\[24\] O *L 3.000e-01 *S 9.582e-03 1.897e-02 
out\[23\] O *L 3.000e-01 *S 9.582e-03 1.897e-02 
out\[22\] O *L 3.000e-01 *S 9.582e-03 1.897e-02 
out\[21\] O *L 3.000e-01 *S 9.582e-03 1.897e-02 
out\[20\] O *L 3.000e-01 *S 9.582e-03 1.897e-02 
out\[19\] O *L 3.000e-01 *S 9.582e-03 1.897e-02 
out\[18\] O *L 3.000e-01 *S 9.582e-03 1.897e-02 
out\[17\] O *L 3.000e-01 *S 9.582e-03 1.897e-02 
out\[16\] O *L 3.000e-01 *S 9.582e-03 1.897e-02 
out\[15\] O *L 3.000e-01 *S 9.582e-03 1.897e-02 
out\[14\] O *L 3.000e-01 *S 9.582e-03 1.897e-02 
out\[13\] O *L 3.000e-01 *S 9.582e-03 1.897e-02 
out\[12\] O *L 3.000e-01 *S 9.582e-03 1.897e-02 
out\[11\] O *L 3.000e-01 *S 9.582e-03 1.897e-02 
out\[10\] O *L 3.000e-01 *S 9.582e-03 1.897e-02 
out\[9\] O *L 3.000e-01 *S 9.582e-03 1.897e-02 
out\[8\] O *L 3.000e-01 *S 9.582e-03 1.897e-02 
out\[7\] O *L 3.000e-01 *S 9.582e-03 1.897e-02 
out\[6\] O *L 3.000e-01 *S 9.582e-03 1.897e-02 
out\[5\] O *L 3.000e-01 *S 9.582e-03 1.897e-02 
out\[4\] O *L 3.000e-01 *S 9.582e-03 1.897e-02 
out\[3\] O *L 3.000e-01 *S 9.582e-03 1.897e-02 
out\[2\] O *L 3.000e-01 *S 9.582e-03 1.897e-02 
out\[1\] O *L 3.000e-01 *S 9.582e-03 1.897e-02 
out\[0\] O *L 3.000e-01 *S 9.582e-03 1.897e-02 
dbz O *L 3.000e-01 *S 8.594e-03 1.684e-02 
ovf O *L 3.000e-01 *S 8.594e-03 1.684e-02 

*R_NET clk 3.969e+01
*DRIVER clk
*CELL NBUFFX4_RVT
*C2_R1_C1 1.984e+01 5.226e-01 1.984e+01 
*LOADS
*RC div_in_2_reg_1__4_:CLK 1.422e-01
*RC div_in_1_reg_1__3_:CLK 1.422e-01
*RC div_units_0__fxp_div_inst_quo_r_reg_13_:CLK 1.425e-01
*RC div_units_0__fxp_div_inst_quo_r_reg_10_:CLK 1.425e-01
*RC div_units_0__fxp_div_inst_quo_r_reg_0_:CLK 1.425e-01
*RC div_units_0__fxp_div_inst_count_r_reg_1_:CLK 1.425e-01
*RC div_units_0__fxp_div_inst_val_r_reg_14_:CLK 1.425e-01
*RC div_units_0__fxp_div_inst_val_r_reg_11_:CLK 1.425e-01
*RC div_units_0__fxp_div_inst_val_r_reg_6_:CLK 1.425e-01
*RC div_units_0__fxp_div_inst_val_r_reg_5_:CLK 1.425e-01
*RC div_units_2__fxp_div_inst_val_r_reg_3_:CLK 1.425e-01
*RC U2025:A 1.617e-01
*END

*R_NET rst 6.959e+00
*DRIVER rst
*CELL NBUFFX4_RVT
*C2_R1_C1 3.480e+00 4.437e-02 3.480e+00 
*LOADS
*RC U1969:A 8.217e-02
*RC U2593:A2 7.220e-02
*END

*R_NET start 8.447e+00
*DRIVER start
*CELL NBUFFX4_RVT
*C2_R1_C1 4.224e+00 7.233e-02 4.224e+00 
*LOADS
*RC U2595:A1 6.772e-02
*RC U2593:A1 6.868e-02
*RC U2523:A1 6.725e-02
*END

*R_NET busy 2.784e+00
*DRIVER busy_reg:Q
*CELL DFFARX1_RVT
*C2_R1_C1 1.392e+00 4.437e-02 1.392e+00 
*LOADS
*RC U3132:A1 5.488e-02
*RC busy 6.873e-03
*END

*R_NET done 3.086e-01
*DRIVER done_reg:Q
*CELL DFFARX1_RVT
*C2_R1_C1 1.543e-01 1.936e-02 1.543e-01 
*LOADS
*RC done 5.976e-03
*END

*R_NET in_1\[63\] 2.583e+00
*DRIVER in_1\[63\]
*CELL NBUFFX4_RVT
*C2_R1_C1 1.291e+00 1.936e-02 1.291e+00 
*LOADS
*RC U3130:A4 5.001e-02
*END

*R_NET in_1\[62\] 2.583e+00
*DRIVER in_1\[62\]
*CELL NBUFFX4_RVT
*C2_R1_C1 1.291e+00 1.936e-02 1.291e+00 
*LOADS
*RC U2995:A4 5.001e-02
*END

*R_NET in_1\[61\] 2.583e+00
*DRIVER in_1\[61\]
*CELL NBUFFX4_RVT
*C2_R1_C1 1.291e+00 1.936e-02 1.291e+00 
*LOADS
*RC U3003:A4 5.001e-02
*END

*R_NET in_1\[60\] 2.583e+00
*DRIVER in_1\[60\]
*CELL NBUFFX4_RVT
*C2_R1_C1 1.291e+00 1.936e-02 1.291e+00 
*LOADS
*RC U3092:A4 5.001e-02
*END

*R_NET in_1\[59\] 2.583e+00
*DRIVER in_1\[59\]
*CELL NBUFFX4_RVT
*C2_R1_C1 1.291e+00 1.936e-02 1.291e+00 
*LOADS
*RC U2975:A4 5.001e-02
*END

*R_NET in_1\[58\] 2.583e+00
*DRIVER in_1\[58\]
*CELL NBUFFX4_RVT
*C2_R1_C1 1.291e+00 1.936e-02 1.291e+00 
*LOADS
*RC U3062:A4 5.001e-02
*END

*R_NET in_1\[57\] 2.583e+00
*DRIVER in_1\[57\]
*CELL NBUFFX4_RVT
*C2_R1_C1 1.291e+00 1.936e-02 1.291e+00 
*LOADS
*RC U3193:A4 5.001e-02
*END

*R_NET in_1\[56\] 2.583e+00
*DRIVER in_1\[56\]
*CELL NBUFFX4_RVT
*C2_R1_C1 1.291e+00 1.936e-02 1.291e+00 
*LOADS
*RC U2951:A4 5.001e-02
*END

*R_NET in_1\[55\] 2.583e+00
*DRIVER in_1\[55\]
*CELL NBUFFX4_RVT
*C2_R1_C1 1.291e+00 1.936e-02 1.291e+00 
*LOADS
*RC U3243:A4 5.001e-02
*END

*R_NET in_1\[54\] 2.583e+00
*DRIVER in_1\[54\]
*CELL NBUFFX4_RVT
*C2_R1_C1 1.291e+00 1.936e-02 1.291e+00 
*LOADS
*RC U3023:A4 5.001e-02
*END

*R_NET in_1\[53\] 2.583e+00
*DRIVER in_1\[53\]
*CELL NBUFFX4_RVT
*C2_R1_C1 1.291e+00 1.936e-02 1.291e+00 
*LOADS
*RC U3068:A4 5.001e-02
*END

*R_NET in_1\[52\] 2.583e+00
*DRIVER in_1\[52\]
*CELL NBUFFX4_RVT
*C2_R1_C1 1.291e+00 1.936e-02 1.291e+00 
*LOADS
*RC U3223:A4 5.001e-02
*END

*R_NET in_1\[51\] 2.583e+00
*DRIVER in_1\[51\]
*CELL NBUFFX4_RVT
*C2_R1_C1 1.291e+00 1.936e-02 1.291e+00 
*LOADS
*RC U2921:A4 5.001e-02
*END

*R_NET in_1\[50\] 2.583e+00
*DRIVER in_1\[50\]
*CELL NBUFFX4_RVT
*C2_R1_C1 1.291e+00 1.936e-02 1.291e+00 
*LOADS
*RC U3085:A4 5.001e-02
*END

*R_NET in_1\[49\] 2.583e+00
*DRIVER in_1\[49\]
*CELL NBUFFX4_RVT
*C2_R1_C1 1.291e+00 1.936e-02 1.291e+00 
*LOADS
*RC U2934:A4 5.001e-02
*END

*R_NET in_1\[48\] 2.583e+00
*DRIVER in_1\[48\]
*CELL NBUFFX4_RVT
*C2_R1_C1 1.291e+00 1.936e-02 1.291e+00 
*LOADS
*RC U3169:A4 5.001e-02
*END

*R_NET in_1\[47\] 2.583e+00
*DRIVER in_1\[47\]
*CELL NBUFFX4_RVT
*C2_R1_C1 1.291e+00 1.936e-02 1.291e+00 
*LOADS
*RC U3137:A4 5.001e-02
*END

*R_NET in_1\[46\] 2.583e+00
*DRIVER in_1\[46\]
*CELL NBUFFX4_RVT
*C2_R1_C1 1.291e+00 1.936e-02 1.291e+00 
*LOADS
*RC U2998:A4 5.001e-02
*END

*R_NET in_1\[45\] 2.583e+00
*DRIVER in_1\[45\]
*CELL NBUFFX4_RVT
*C2_R1_C1 1.291e+00 1.936e-02 1.291e+00 
*LOADS
*RC U3007:A4 5.001e-02
*END

*R_NET in_1\[44\] 2.583e+00
*DRIVER in_1\[44\]
*CELL NBUFFX4_RVT
*C2_R1_C1 1.291e+00 1.936e-02 1.291e+00 
*LOADS
*RC U3091:A4 5.001e-02
*END

*R_NET in_1\[43\] 2.583e+00
*DRIVER in_1\[43\]
*CELL NBUFFX4_RVT
*C2_R1_C1 1.291e+00 1.936e-02 1.291e+00 
*LOADS
*RC U2978:A4 5.001e-02
*END

*R_NET in_1\[42\] 2.583e+00
*DRIVER in_1\[42\]
*CELL NBUFFX4_RVT
*C2_R1_C1 1.291e+00 1.936e-02 1.291e+00 
*LOADS
*RC U3064:A4 5.001e-02
*END

*R_NET in_1\[41\] 2.583e+00
*DRIVER in_1\[41\]
*CELL NBUFFX4_RVT
*C2_R1_C1 1.291e+00 1.936e-02 1.291e+00 
*LOADS
*RC U3191:A4 5.001e-02
*END

*R_NET in_1\[40\] 2.583e+00
*DRIVER in_1\[40\]
*CELL NBUFFX4_RVT
*C2_R1_C1 1.291e+00 1.936e-02 1.291e+00 
*LOADS
*RC U2957:A4 5.001e-02
*END

*R_NET in_1\[39\] 2.583e+00
*DRIVER in_1\[39\]
*CELL NBUFFX4_RVT
*C2_R1_C1 1.291e+00 1.936e-02 1.291e+00 
*LOADS
*RC U3241:A4 5.001e-02
*END

*R_NET in_1\[38\] 2.583e+00
*DRIVER in_1\[38\]
*CELL NBUFFX4_RVT
*C2_R1_C1 1.291e+00 1.936e-02 1.291e+00 
*LOADS
*RC U3026:A4 5.001e-02
*END

*R_NET in_1\[37\] 2.583e+00
*DRIVER in_1\[37\]
*CELL NBUFFX4_RVT
*C2_R1_C1 1.291e+00 1.936e-02 1.291e+00 
*LOADS
*RC U3069:A4 5.001e-02
*END

*R_NET in_1\[36\] 2.583e+00
*DRIVER in_1\[36\]
*CELL NBUFFX4_RVT
*C2_R1_C1 1.291e+00 1.936e-02 1.291e+00 
*LOADS
*RC U3232:A4 5.001e-02
*END

*R_NET in_1\[35\] 2.583e+00
*DRIVER in_1\[35\]
*CELL NBUFFX4_RVT
*C2_R1_C1 1.291e+00 1.936e-02 1.291e+00 
*LOADS
*RC U2925:A4 5.001e-02
*END

*R_NET in_1\[34\] 2.583e+00
*DRIVER in_1\[34\]
*CELL NBUFFX4_RVT
*C2_R1_C1 1.291e+00 1.936e-02 1.291e+00 
*LOADS
*RC U3089:A4 5.001e-02
*END

*R_NET in_1\[33\] 2.583e+00
*DRIVER in_1\[33\]
*CELL NBUFFX4_RVT
*C2_R1_C1 1.291e+00 1.936e-02 1.291e+00 
*LOADS
*RC U2940:A4 5.001e-02
*END

*R_NET in_1\[32\] 2.583e+00
*DRIVER in_1\[32\]
*CELL NBUFFX4_RVT
*C2_R1_C1 1.291e+00 1.936e-02 1.291e+00 
*LOADS
*RC U3171:A4 5.001e-02
*END

*R_NET in_1\[31\] 2.583e+00
*DRIVER in_1\[31\]
*CELL NBUFFX4_RVT
*C2_R1_C1 1.291e+00 1.936e-02 1.291e+00 
*LOADS
*RC U3127:A4 5.001e-02
*END

*R_NET in_1\[30\] 2.583e+00
*DRIVER in_1\[30\]
*CELL NBUFFX4_RVT
*C2_R1_C1 1.291e+00 1.936e-02 1.291e+00 
*LOADS
*RC U2973:A4 5.001e-02
*END

*R_NET in_1\[29\] 2.583e+00
*DRIVER in_1\[29\]
*CELL NBUFFX4_RVT
*C2_R1_C1 1.291e+00 1.936e-02 1.291e+00 
*LOADS
*RC U2992:A4 5.001e-02
*END

*R_NET in_1\[28\] 2.583e+00
*DRIVER in_1\[28\]
*CELL NBUFFX4_RVT
*C2_R1_C1 1.291e+00 1.936e-02 1.291e+00 
*LOADS
*RC U3094:A4 5.001e-02
*END

*R_NET in_1\[27\] 2.583e+00
*DRIVER in_1\[27\]
*CELL NBUFFX4_RVT
*C2_R1_C1 1.291e+00 1.936e-02 1.291e+00 
*LOADS
*RC U2971:A4 5.001e-02
*END

*R_NET in_1\[26\] 2.583e+00
*DRIVER in_1\[26\]
*CELL NBUFFX4_RVT
*C2_R1_C1 1.291e+00 1.936e-02 1.291e+00 
*LOADS
*RC U3032:A4 5.001e-02
*END

*R_NET in_1\[25\] 2.583e+00
*DRIVER in_1\[25\]
*CELL NBUFFX4_RVT
*C2_R1_C1 1.291e+00 1.936e-02 1.291e+00 
*LOADS
*RC U3242:A4 5.001e-02
*END

*R_NET in_1\[24\] 2.583e+00
*DRIVER in_1\[24\]
*CELL NBUFFX4_RVT
*C2_R1_C1 1.291e+00 1.936e-02 1.291e+00 
*LOADS
*RC U2949:A4 5.001e-02
*END

*R_NET in_1\[23\] 2.583e+00
*DRIVER in_1\[23\]
*CELL NBUFFX4_RVT
*C2_R1_C1 1.291e+00 1.936e-02 1.291e+00 
*LOADS
*RC U3246:A4 5.001e-02
*END

*R_NET in_1\[22\] 2.583e+00
*DRIVER in_1\[22\]
*CELL NBUFFX4_RVT
*C2_R1_C1 1.291e+00 1.936e-02 1.291e+00 
*LOADS
*RC U3011:A4 5.001e-02
*END

*R_NET in_1\[21\] 2.583e+00
*DRIVER in_1\[21\]
*CELL NBUFFX4_RVT
*C2_R1_C1 1.291e+00 1.936e-02 1.291e+00 
*LOADS
*RC U3030:A4 5.001e-02
*END

*R_NET in_1\[20\] 2.583e+00
*DRIVER in_1\[20\]
*CELL NBUFFX4_RVT
*C2_R1_C1 1.291e+00 1.936e-02 1.291e+00 
*LOADS
*RC U2597:A4 5.001e-02
*END

*R_NET in_1\[19\] 2.583e+00
*DRIVER in_1\[19\]
*CELL NBUFFX4_RVT
*C2_R1_C1 1.291e+00 1.936e-02 1.291e+00 
*LOADS
*RC U2891:A4 5.001e-02
*END

*R_NET in_1\[18\] 2.583e+00
*DRIVER in_1\[18\]
*CELL NBUFFX4_RVT
*C2_R1_C1 1.291e+00 1.936e-02 1.291e+00 
*LOADS
*RC U3082:A4 5.001e-02
*END

*R_NET in_1\[17\] 2.583e+00
*DRIVER in_1\[17\]
*CELL NBUFFX4_RVT
*C2_R1_C1 1.291e+00 1.936e-02 1.291e+00 
*LOADS
*RC U2932:A4 5.001e-02
*END

*R_NET in_1\[16\] 2.583e+00
*DRIVER in_1\[16\]
*CELL NBUFFX4_RVT
*C2_R1_C1 1.291e+00 1.936e-02 1.291e+00 
*LOADS
*RC U3179:A4 5.001e-02
*END

*R_NET in_1\[15\] 2.583e+00
*DRIVER in_1\[15\]
*CELL NBUFFX4_RVT
*C2_R1_C1 1.291e+00 1.936e-02 1.291e+00 
*LOADS
*RC U3143:A4 5.001e-02
*END

*R_NET in_1\[14\] 2.583e+00
*DRIVER in_1\[14\]
*CELL NBUFFX4_RVT
*C2_R1_C1 1.291e+00 1.936e-02 1.291e+00 
*LOADS
*RC U3001:A4 5.001e-02
*END

*R_NET in_1\[13\] 2.583e+00
*DRIVER in_1\[13\]
*CELL NBUFFX4_RVT
*C2_R1_C1 1.291e+00 1.936e-02 1.291e+00 
*LOADS
*RC U3009:A4 5.001e-02
*END

*R_NET in_1\[12\] 2.583e+00
*DRIVER in_1\[12\]
*CELL NBUFFX4_RVT
*C2_R1_C1 1.291e+00 1.936e-02 1.291e+00 
*LOADS
*RC U3090:A4 5.001e-02
*END

*R_NET in_1\[11\] 2.583e+00
*DRIVER in_1\[11\]
*CELL NBUFFX4_RVT
*C2_R1_C1 1.291e+00 1.936e-02 1.291e+00 
*LOADS
*RC U2980:A4 5.001e-02
*END

*R_NET in_1\[10\] 2.583e+00
*DRIVER in_1\[10\]
*CELL NBUFFX4_RVT
*C2_R1_C1 1.291e+00 1.936e-02 1.291e+00 
*LOADS
*RC U3066:A4 5.001e-02
*END

*R_NET in_1\[9\] 2.583e+00
*DRIVER in_1\[9\]
*CELL NBUFFX4_RVT
*C2_R1_C1 1.291e+00 1.936e-02 1.291e+00 
*LOADS
*RC U3184:A4 5.001e-02
*END

*R_NET in_1\[8\] 2.583e+00
*DRIVER in_1\[8\]
*CELL NBUFFX4_RVT
*C2_R1_C1 1.291e+00 1.936e-02 1.291e+00 
*LOADS
*RC U2965:A4 5.001e-02
*END

*R_NET in_1\[7\] 2.583e+00
*DRIVER in_1\[7\]
*CELL NBUFFX4_RVT
*C2_R1_C1 1.291e+00 1.936e-02 1.291e+00 
*LOADS
*RC U3231:A4 5.001e-02
*END

*R_NET in_1\[6\] 2.583e+00
*DRIVER in_1\[6\]
*CELL NBUFFX4_RVT
*C2_R1_C1 1.291e+00 1.936e-02 1.291e+00 
*LOADS
*RC U3029:A4 5.001e-02
*END

*R_NET in_1\[5\] 2.583e+00
*DRIVER in_1\[5\]
*CELL NBUFFX4_RVT
*C2_R1_C1 1.291e+00 1.936e-02 1.291e+00 
*LOADS
*RC U3071:A4 5.001e-02
*END

*R_NET in_1\[4\] 2.583e+00
*DRIVER in_1\[4\]
*CELL NBUFFX4_RVT
*C2_R1_C1 1.291e+00 1.936e-02 1.291e+00 
*LOADS
*RC U3236:A4 5.001e-02
*END

*R_NET in_1\[3\] 2.583e+00
*DRIVER in_1\[3\]
*CELL NBUFFX4_RVT
*C2_R1_C1 1.291e+00 1.936e-02 1.291e+00 
*LOADS
*RC U2929:A4 5.001e-02
*END

*R_NET in_1\[2\] 2.583e+00
*DRIVER in_1\[2\]
*CELL NBUFFX4_RVT
*C2_R1_C1 1.291e+00 1.936e-02 1.291e+00 
*LOADS
*RC U3097:A4 5.001e-02
*END

*R_NET in_1\[1\] 2.583e+00
*DRIVER in_1\[1\]
*CELL NBUFFX4_RVT
*C2_R1_C1 1.291e+00 1.936e-02 1.291e+00 
*LOADS
*RC U2945:A4 5.001e-02
*END

*R_NET in_1\[0\] 2.583e+00
*DRIVER in_1\[0\]
*CELL NBUFFX4_RVT
*C2_R1_C1 1.291e+00 1.936e-02 1.291e+00 
*LOADS
*RC U3189:A4 5.001e-02
*END

*R_NET in_2\[63\] 2.583e+00
*DRIVER in_2\[63\]
*CELL NBUFFX4_RVT
*C2_R1_C1 1.291e+00 1.936e-02 1.291e+00 
*LOADS
*RC U3125:A4 5.001e-02
*END

*R_NET in_2\[62\] 2.583e+00
*DRIVER in_2\[62\]
*CELL NBUFFX4_RVT
*C2_R1_C1 1.291e+00 1.936e-02 1.291e+00 
*LOADS
*RC U3109:A4 5.001e-02
*END

*R_NET in_2\[61\] 2.583e+00
*DRIVER in_2\[61\]
*CELL NBUFFX4_RVT
*C2_R1_C1 1.291e+00 1.936e-02 1.291e+00 
*LOADS
*RC U3078:A4 5.001e-02
*END

*R_NET in_2\[60\] 2.583e+00
*DRIVER in_2\[60\]
*CELL NBUFFX4_RVT
*C2_R1_C1 1.291e+00 1.936e-02 1.291e+00 
*LOADS
*RC U3013:A4 5.001e-02
*END

*R_NET in_2\[59\] 2.583e+00
*DRIVER in_2\[59\]
*CELL NBUFFX4_RVT
*C2_R1_C1 1.291e+00 1.936e-02 1.291e+00 
*LOADS
*RC U3172:A4 5.001e-02
*END

*R_NET in_2\[58\] 2.583e+00
*DRIVER in_2\[58\]
*CELL NBUFFX4_RVT
*C2_R1_C1 1.291e+00 1.936e-02 1.291e+00 
*LOADS
*RC U3099:A4 5.001e-02
*END

*R_NET in_2\[57\] 2.583e+00
*DRIVER in_2\[57\]
*CELL NBUFFX4_RVT
*C2_R1_C1 1.291e+00 1.936e-02 1.291e+00 
*LOADS
*RC U3105:A4 5.001e-02
*END

*R_NET in_2\[56\] 2.583e+00
*DRIVER in_2\[56\]
*CELL NBUFFX4_RVT
*C2_R1_C1 1.291e+00 1.936e-02 1.291e+00 
*LOADS
*RC U3221:A4 5.001e-02
*END

*R_NET in_2\[55\] 2.583e+00
*DRIVER in_2\[55\]
*CELL NBUFFX4_RVT
*C2_R1_C1 1.291e+00 1.936e-02 1.291e+00 
*LOADS
*RC U2955:A4 5.001e-02
*END

*R_NET in_2\[54\] 2.583e+00
*DRIVER in_2\[54\]
*CELL NBUFFX4_RVT
*C2_R1_C1 1.291e+00 1.936e-02 1.291e+00 
*LOADS
*RC U3103:A4 5.001e-02
*END

*R_NET in_2\[53\] 2.583e+00
*DRIVER in_2\[53\]
*CELL NBUFFX4_RVT
*C2_R1_C1 1.291e+00 1.936e-02 1.291e+00 
*LOADS
*RC U2983:A4 5.001e-02
*END

*R_NET in_2\[52\] 2.583e+00
*DRIVER in_2\[52\]
*CELL NBUFFX4_RVT
*C2_R1_C1 1.291e+00 1.936e-02 1.291e+00 
*LOADS
*RC U3244:A4 5.001e-02
*END

*R_NET in_2\[51\] 2.583e+00
*DRIVER in_2\[51\]
*CELL NBUFFX4_RVT
*C2_R1_C1 1.291e+00 1.936e-02 1.291e+00 
*LOADS
*RC U2923:A4 5.001e-02
*END

*R_NET in_2\[50\] 2.583e+00
*DRIVER in_2\[50\]
*CELL NBUFFX4_RVT
*C2_R1_C1 1.291e+00 1.936e-02 1.291e+00 
*LOADS
*RC U3073:A4 5.001e-02
*END

*R_NET in_2\[49\] 2.583e+00
*DRIVER in_2\[49\]
*CELL NBUFFX4_RVT
*C2_R1_C1 1.291e+00 1.936e-02 1.291e+00 
*LOADS
*RC U2935:A4 5.001e-02
*END

*R_NET in_2\[48\] 2.583e+00
*DRIVER in_2\[48\]
*CELL NBUFFX4_RVT
*C2_R1_C1 1.291e+00 1.936e-02 1.291e+00 
*LOADS
*RC U3192:A4 5.001e-02
*END

*R_NET in_2\[47\] 2.583e+00
*DRIVER in_2\[47\]
*CELL NBUFFX4_RVT
*C2_R1_C1 1.291e+00 1.936e-02 1.291e+00 
*LOADS
*RC U3227:A4 5.001e-02
*END

*R_NET in_2\[46\] 2.583e+00
*DRIVER in_2\[46\]
*CELL NBUFFX4_RVT
*C2_R1_C1 1.291e+00 1.936e-02 1.291e+00 
*LOADS
*RC U3108:A4 5.001e-02
*END

*R_NET in_2\[45\] 2.583e+00
*DRIVER in_2\[45\]
*CELL NBUFFX4_RVT
*C2_R1_C1 1.291e+00 1.936e-02 1.291e+00 
*LOADS
*RC U3100:A4 5.001e-02
*END

*R_NET in_2\[44\] 2.583e+00
*DRIVER in_2\[44\]
*CELL NBUFFX4_RVT
*C2_R1_C1 1.291e+00 1.936e-02 1.291e+00 
*LOADS
*RC U3016:A4 5.001e-02
*END

*R_NET in_2\[43\] 2.583e+00
*DRIVER in_2\[43\]
*CELL NBUFFX4_RVT
*C2_R1_C1 1.291e+00 1.936e-02 1.291e+00 
*LOADS
*RC U3168:A4 5.001e-02
*END

*R_NET in_2\[42\] 2.583e+00
*DRIVER in_2\[42\]
*CELL NBUFFX4_RVT
*C2_R1_C1 1.291e+00 1.936e-02 1.291e+00 
*LOADS
*RC U3098:A4 5.001e-02
*END

*R_NET in_2\[41\] 2.583e+00
*DRIVER in_2\[41\]
*CELL NBUFFX4_RVT
*C2_R1_C1 1.291e+00 1.936e-02 1.291e+00 
*LOADS
*RC U3107:A4 5.001e-02
*END

*R_NET in_2\[40\] 2.583e+00
*DRIVER in_2\[40\]
*CELL NBUFFX4_RVT
*C2_R1_C1 1.291e+00 1.936e-02 1.291e+00 
*LOADS
*RC U3112:A4 5.001e-02
*END

*R_NET in_2\[39\] 2.583e+00
*DRIVER in_2\[39\]
*CELL NBUFFX4_RVT
*C2_R1_C1 1.291e+00 1.936e-02 1.291e+00 
*LOADS
*RC U2960:A4 5.001e-02
*END

*R_NET in_2\[38\] 2.583e+00
*DRIVER in_2\[38\]
*CELL NBUFFX4_RVT
*C2_R1_C1 1.291e+00 1.936e-02 1.291e+00 
*LOADS
*RC U3238:A4 5.001e-02
*END

*R_NET in_2\[37\] 2.583e+00
*DRIVER in_2\[37\]
*CELL NBUFFX4_RVT
*C2_R1_C1 1.291e+00 1.936e-02 1.291e+00 
*LOADS
*RC U2985:A4 5.001e-02
*END

*R_NET in_2\[36\] 2.583e+00
*DRIVER in_2\[36\]
*CELL NBUFFX4_RVT
*C2_R1_C1 1.291e+00 1.936e-02 1.291e+00 
*LOADS
*RC U3253:A4 5.001e-02
*END

*R_NET in_2\[35\] 2.583e+00
*DRIVER in_2\[35\]
*CELL NBUFFX4_RVT
*C2_R1_C1 1.291e+00 1.936e-02 1.291e+00 
*LOADS
*RC U2927:A4 5.001e-02
*END

*R_NET in_2\[34\] 2.583e+00
*DRIVER in_2\[34\]
*CELL NBUFFX4_RVT
*C2_R1_C1 1.291e+00 1.936e-02 1.291e+00 
*LOADS
*RC U3093:A4 5.001e-02
*END

*R_NET in_2\[33\] 2.583e+00
*DRIVER in_2\[33\]
*CELL NBUFFX4_RVT
*C2_R1_C1 1.291e+00 1.936e-02 1.291e+00 
*LOADS
*RC U2942:A4 5.001e-02
*END

*R_NET in_2\[32\] 2.583e+00
*DRIVER in_2\[32\]
*CELL NBUFFX4_RVT
*C2_R1_C1 1.291e+00 1.936e-02 1.291e+00 
*LOADS
*RC U3194:A4 5.001e-02
*END

*R_NET in_2\[31\] 2.583e+00
*DRIVER in_2\[31\]
*CELL NBUFFX4_RVT
*C2_R1_C1 1.291e+00 1.936e-02 1.291e+00 
*LOADS
*RC U3245:A4 5.001e-02
*END

*R_NET in_2\[30\] 2.583e+00
*DRIVER in_2\[30\]
*CELL NBUFFX4_RVT
*C2_R1_C1 1.291e+00 1.936e-02 1.291e+00 
*LOADS
*RC U3106:A4 5.001e-02
*END

*R_NET in_2\[29\] 2.583e+00
*DRIVER in_2\[29\]
*CELL NBUFFX4_RVT
*C2_R1_C1 1.291e+00 1.936e-02 1.291e+00 
*LOADS
*RC U3102:A4 5.001e-02
*END

*R_NET in_2\[28\] 2.583e+00
*DRIVER in_2\[28\]
*CELL NBUFFX4_RVT
*C2_R1_C1 1.291e+00 1.936e-02 1.291e+00 
*LOADS
*RC U3018:A4 5.001e-02
*END

*R_NET in_2\[27\] 2.583e+00
*DRIVER in_2\[27\]
*CELL NBUFFX4_RVT
*C2_R1_C1 1.291e+00 1.936e-02 1.291e+00 
*LOADS
*RC U3140:A4 5.001e-02
*END

*R_NET in_2\[26\] 2.583e+00
*DRIVER in_2\[26\]
*CELL NBUFFX4_RVT
*C2_R1_C1 1.291e+00 1.936e-02 1.291e+00 
*LOADS
*RC U3096:A4 5.001e-02
*END

*R_NET in_2\[25\] 2.583e+00
*DRIVER in_2\[25\]
*CELL NBUFFX4_RVT
*C2_R1_C1 1.291e+00 1.936e-02 1.291e+00 
*LOADS
*RC U3110:A4 5.001e-02
*END

*R_NET in_2\[24\] 2.583e+00
*DRIVER in_2\[24\]
*CELL NBUFFX4_RVT
*C2_R1_C1 1.291e+00 1.936e-02 1.291e+00 
*LOADS
*RC U3122:A4 5.001e-02
*END

*R_NET in_2\[23\] 2.583e+00
*DRIVER in_2\[23\]
*CELL NBUFFX4_RVT
*C2_R1_C1 1.291e+00 1.936e-02 1.291e+00 
*LOADS
*RC U2962:A4 5.001e-02
*END

*R_NET in_2\[22\] 2.583e+00
*DRIVER in_2\[22\]
*CELL NBUFFX4_RVT
*C2_R1_C1 1.291e+00 1.936e-02 1.291e+00 
*LOADS
*RC U3235:A4 5.001e-02
*END

*R_NET in_2\[21\] 2.583e+00
*DRIVER in_2\[21\]
*CELL NBUFFX4_RVT
*C2_R1_C1 1.291e+00 1.936e-02 1.291e+00 
*LOADS
*RC U2988:A4 5.001e-02
*END

*R_NET in_2\[20\] 2.583e+00
*DRIVER in_2\[20\]
*CELL NBUFFX4_RVT
*C2_R1_C1 1.291e+00 1.936e-02 1.291e+00 
*LOADS
*RC U3239:A4 5.001e-02
*END

*R_NET in_2\[19\] 2.583e+00
*DRIVER in_2\[19\]
*CELL NBUFFX4_RVT
*C2_R1_C1 1.291e+00 1.936e-02 1.291e+00 
*LOADS
*RC U2892:A4 5.001e-02
*END

*R_NET in_2\[18\] 2.583e+00
*DRIVER in_2\[18\]
*CELL NBUFFX4_RVT
*C2_R1_C1 1.291e+00 1.936e-02 1.291e+00 
*LOADS
*RC U2889:A4 5.001e-02
*END

*R_NET in_2\[17\] 2.583e+00
*DRIVER in_2\[17\]
*CELL NBUFFX4_RVT
*C2_R1_C1 1.291e+00 1.936e-02 1.291e+00 
*LOADS
*RC U2933:A4 5.001e-02
*END

*R_NET in_2\[16\] 2.583e+00
*DRIVER in_2\[16\]
*CELL NBUFFX4_RVT
*C2_R1_C1 1.291e+00 1.936e-02 1.291e+00 
*LOADS
*RC U3190:A4 5.001e-02
*END

*R_NET in_2\[15\] 2.583e+00
*DRIVER in_2\[15\]
*CELL NBUFFX4_RVT
*C2_R1_C1 1.291e+00 1.936e-02 1.291e+00 
*LOADS
*RC U3113:A4 5.001e-02
*END

*R_NET in_2\[14\] 2.583e+00
*DRIVER in_2\[14\]
*CELL NBUFFX4_RVT
*C2_R1_C1 1.291e+00 1.936e-02 1.291e+00 
*LOADS
*RC U3104:A4 5.001e-02
*END

*R_NET in_2\[13\] 2.583e+00
*DRIVER in_2\[13\]
*CELL NBUFFX4_RVT
*C2_R1_C1 1.291e+00 1.936e-02 1.291e+00 
*LOADS
*RC U3080:A4 5.001e-02
*END

*R_NET in_2\[12\] 2.583e+00
*DRIVER in_2\[12\]
*CELL NBUFFX4_RVT
*C2_R1_C1 1.291e+00 1.936e-02 1.291e+00 
*LOADS
*RC U3021:A4 5.001e-02
*END

*R_NET in_2\[11\] 2.583e+00
*DRIVER in_2\[11\]
*CELL NBUFFX4_RVT
*C2_R1_C1 1.291e+00 1.936e-02 1.291e+00 
*LOADS