*SPEF "IEEE 1481-1999"
*DESIGN "vec_silu"
*DATE "Thu Dec  5 23:58:30 2024"
*VENDOR "SYNOPSYS INC"
*PROGRAM "Synopsys Design Compiler cmos"
*VERSION "V-2023.12-SP5"
*DESIGN_FLOW "SYNTHESIS"
*DIVIDER /
*DELIMITER :
*BUS_DELIMITER []
*T_UNIT 1.0 NS
*C_UNIT 0.0010 PF
*R_UNIT 1000.0 KOHM
*L_UNIT 1.0 HENRY

*PORTS

clk I *L 0.000e+00 *S 4.903e-03 2.534e-02 *D NBUFFX4_RVT 
rst I *L 0.000e+00 *S 3.958e-03 2.199e-02 *D NBUFFX4_RVT 
vec_in\[63\] I *L 0.000e+00 *S 1.143e-02 1.469e-02 *D NBUFFX4_RVT 
vec_in\[62\] I *L 0.000e+00 *S 3.987e-03 2.173e-02 *D NBUFFX4_RVT 
vec_in\[61\] I *L 0.000e+00 *S 1.428e-02 1.552e-02 *D NBUFFX4_RVT 
vec_in\[60\] I *L 0.000e+00 *S 9.561e-03 1.414e-02 *D NBUFFX4_RVT 
vec_in\[59\] I *L 0.000e+00 *S 1.489e-02 1.737e-02 *D NBUFFX4_RVT 
vec_in\[58\] I *L 0.000e+00 *S 9.004e-03 1.398e-02 *D NBUFFX4_RVT 
vec_in\[57\] I *L 0.000e+00 *S 1.535e-02 1.700e-02 *D NBUFFX4_RVT 
vec_in\[56\] I *L 0.000e+00 *S 1.341e-02 1.527e-02 *D NBUFFX4_RVT 
vec_in\[55\] I *L 0.000e+00 *S 0.000e+00 4.336e-02 *D NBUFFX4_RVT 
vec_in\[54\] I *L 0.000e+00 *S 0.000e+00 3.956e-02 *D NBUFFX4_RVT 
vec_in\[53\] I *L 0.000e+00 *S 1.281e-02 1.903e-02 *D NBUFFX4_RVT 
vec_in\[52\] I *L 0.000e+00 *S 1.791e-03 2.782e-02 *D NBUFFX4_RVT 
vec_in\[51\] I *L 0.000e+00 *S 0.000e+00 3.882e-02 *D NBUFFX4_RVT 
vec_in\[50\] I *L 0.000e+00 *S 7.341e-03 2.340e-02 *D NBUFFX4_RVT 
vec_in\[49\] I *L 0.000e+00 *S 1.447e-02 1.558e-02 *D NBUFFX4_RVT 
vec_in\[48\] I *L 0.000e+00 *S 1.140e-02 1.468e-02 *D NBUFFX4_RVT 
vec_in\[47\] I *L 0.000e+00 *S 1.315e-02 1.519e-02 *D NBUFFX4_RVT 
vec_in\[46\] I *L 0.000e+00 *S 8.453e-03 1.385e-02 *D NBUFFX4_RVT 
vec_in\[45\] I *L 0.000e+00 *S 1.507e-02 1.575e-02 *D NBUFFX4_RVT 
vec_in\[44\] I *L 0.000e+00 *S 5.839e-03 1.322e-02 *D NBUFFX4_RVT 
vec_in\[43\] I *L 0.000e+00 *S 1.086e-02 1.452e-02 *D NBUFFX4_RVT 
vec_in\[42\] I *L 0.000e+00 *S 9.225e-03 1.404e-02 *D NBUFFX4_RVT 
vec_in\[41\] I *L 0.000e+00 *S 1.358e-02 1.842e-02 *D NBUFFX4_RVT 
vec_in\[40\] I *L 0.000e+00 *S 1.409e-02 1.547e-02 *D NBUFFX4_RVT 
vec_in\[39\] I *L 0.000e+00 *S 0.000e+00 2.978e-02 *D NBUFFX4_RVT 
vec_in\[38\] I *L 0.000e+00 *S 0.000e+00 3.615e-02 *D NBUFFX4_RVT 
vec_in\[37\] I *L 0.000e+00 *S 0.000e+00 3.017e-02 *D NBUFFX4_RVT 
vec_in\[36\] I *L 0.000e+00 *S 1.169e-02 1.993e-02 *D NBUFFX4_RVT 
vec_in\[35\] I *L 0.000e+00 *S 0.000e+00 3.578e-02 *D NBUFFX4_RVT 
vec_in\[34\] I *L 0.000e+00 *S 2.376e-03 2.736e-02 *D NBUFFX4_RVT 
vec_in\[33\] I *L 0.000e+00 *S 7.350e-03 2.339e-02 *D NBUFFX4_RVT 
vec_in\[32\] I *L 0.000e+00 *S 1.290e-02 1.512e-02 *D NBUFFX4_RVT 
vec_in\[31\] I *L 0.000e+00 *S 1.096e-02 1.455e-02 *D NBUFFX4_RVT 
vec_in\[30\] I *L 0.000e+00 *S 3.987e-03 2.173e-02 *D NBUFFX4_RVT 
vec_in\[29\] I *L 0.000e+00 *S 1.422e-02 1.550e-02 *D NBUFFX4_RVT 
vec_in\[28\] I *L 0.000e+00 *S 7.569e-03 1.364e-02 *D NBUFFX4_RVT 
vec_in\[27\] I *L 0.000e+00 *S 1.184e-02 1.481e-02 *D NBUFFX4_RVT 
vec_in\[26\] I *L 0.000e+00 *S 7.017e-03 1.350e-02 *D NBUFFX4_RVT 
vec_in\[25\] I *L 0.000e+00 *S 8.888e-03 2.216e-02 *D NBUFFX4_RVT 
vec_in\[24\] I *L 0.000e+00 *S 1.619e-02 1.608e-02 *D NBUFFX4_RVT 
vec_in\[23\] I *L 0.000e+00 *S 0.000e+00 3.350e-02 *D NBUFFX4_RVT 
vec_in\[22\] I *L 0.000e+00 *S 0.000e+00 3.455e-02 *D NBUFFX4_RVT 
vec_in\[21\] I *L 0.000e+00 *S 0.000e+00 3.008e-02 *D NBUFFX4_RVT 
vec_in\[20\] I *L 0.000e+00 *S 0.000e+00 3.950e-02 *D NBUFFX4_RVT 
vec_in\[19\] I *L 0.000e+00 *S 0.000e+00 3.141e-02 *D NBUFFX4_RVT 
vec_in\[18\] I *L 0.000e+00 *S 1.947e-03 2.770e-02 *D NBUFFX4_RVT 
vec_in\[17\] I *L 0.000e+00 *S 1.366e-02 1.835e-02 *D NBUFFX4_RVT 
vec_in\[16\] I *L 0.000e+00 *S 1.164e-02 1.475e-02 *D NBUFFX4_RVT 
vec_in\[15\] I *L 0.000e+00 *S 0.000e+00 4.199e-02 *D NBUFFX4_RVT 
vec_in\[14\] I *L 0.000e+00 *S 6.888e-03 1.347e-02 *D NBUFFX4_RVT 
vec_in\[13\] I *L 0.000e+00 *S 1.487e-02 1.569e-02 *D NBUFFX4_RVT 
vec_in\[12\] I *L 0.000e+00 *S 3.987e-03 2.173e-02 *D NBUFFX4_RVT 
vec_in\[11\] I *L 0.000e+00 *S 1.219e-02 1.491e-02 *D NBUFFX4_RVT 
vec_in\[10\] I *L 0.000e+00 *S 7.027e-03 1.351e-02 *D NBUFFX4_RVT 
vec_in\[9\] I *L 0.000e+00 *S 1.066e-02 2.075e-02 *D NBUFFX4_RVT 
vec_in\[8\] I *L 0.000e+00 *S 0.000e+00 2.955e-02 *D NBUFFX4_RVT 
vec_in\[7\] I *L 0.000e+00 *S 5.748e-03 2.467e-02 *D NBUFFX4_RVT 
vec_in\[6\] I *L 0.000e+00 *S 0.000e+00 4.029e-02 *D NBUFFX4_RVT 
vec_in\[5\] I *L 0.000e+00 *S 0.000e+00 2.979e-02 *D NBUFFX4_RVT 
vec_in\[4\] I *L 0.000e+00 *S 0.000e+00 3.979e-02 *D NBUFFX4_RVT 
vec_in\[3\] I *L 0.000e+00 *S 1.729e-03 2.787e-02 *D NBUFFX4_RVT 
vec_in\[2\] I *L 0.000e+00 *S 1.348e-02 1.849e-02 *D NBUFFX4_RVT 
vec_in\[1\] I *L 0.000e+00 *S 1.240e-02 1.497e-02 *D NBUFFX4_RVT 
vec_in\[0\] I *L 0.000e+00 *S 1.044e-02 1.440e-02 *D NBUFFX4_RVT 
vec_out\[63\] O *L 3.000e-01 *S 2.114e-03 2.433e-03 
vec_out\[62\] O *L 3.000e-01 *S 2.114e-03 2.433e-03 
vec_out\[61\] O *L 3.000e-01 *S 2.114e-03 2.433e-03 
vec_out\[60\] O *L 3.000e-01 *S 2.114e-03 2.433e-03 
vec_out\[59\] O *L 3.000e-01 *S 2.114e-03 2.433e-03 
vec_out\[58\] O *L 3.000e-01 *S 2.114e-03 2.433e-03 
vec_out\[57\] O *L 3.000e-01 *S 2.114e-03 2.433e-03 
vec_out\[56\] O *L 3.000e-01 *S 2.114e-03 2.433e-03 
vec_out\[55\] O *L 3.000e-01 *S 2.114e-03 2.433e-03 
vec_out\[54\] O *L 3.000e-01 *S 2.114e-03 2.433e-03 
vec_out\[53\] O *L 3.000e-01 *S 2.114e-03 2.433e-03 
vec_out\[52\] O *L 3.000e-01 *S 2.114e-03 2.433e-03 
vec_out\[51\] O *L 3.000e-01 *S 2.114e-03 2.433e-03 
vec_out\[50\] O *L 3.000e-01 *S 2.114e-03 2.433e-03 
vec_out\[49\] O *L 3.000e-01 *S 2.114e-03 2.433e-03 
vec_out\[48\] O *L 3.000e-01 *S 3.126e-03 3.543e-03 
vec_out\[47\] O *L 3.000e-01 *S 2.114e-03 2.433e-03 
vec_out\[46\] O *L 3.000e-01 *S 2.114e-03 2.433e-03 
vec_out\[45\] O *L 3.000e-01 *S 2.114e-03 2.433e-03 
vec_out\[44\] O *L 3.000e-01 *S 2.114e-03 2.433e-03 
vec_out\[43\] O *L 3.000e-01 *S 2.114e-03 2.433e-03 
vec_out\[42\] O *L 3.000e-01 *S 2.114e-03 2.433e-03 
vec_out\[41\] O *L 3.000e-01 *S 2.114e-03 2.433e-03 
vec_out\[40\] O *L 3.000e-01 *S 2.114e-03 2.433e-03 
vec_out\[39\] O *L 3.000e-01 *S 2.114e-03 2.433e-03 
vec_out\[38\] O *L 3.000e-01 *S 2.114e-03 2.433e-03 
vec_out\[37\] O *L 3.000e-01 *S 2.114e-03 2.433e-03 
vec_out\[36\] O *L 3.000e-01 *S 2.114e-03 2.433e-03 
vec_out\[35\] O *L 3.000e-01 *S 2.114e-03 2.433e-03 
vec_out\[34\] O *L 3.000e-01 *S 2.114e-03 2.433e-03 
vec_out\[33\] O *L 3.000e-01 *S 2.114e-03 2.433e-03 
vec_out\[32\] O *L 3.000e-01 *S 3.126e-03 3.543e-03 
vec_out\[31\] O *L 3.000e-01 *S 2.114e-03 2.433e-03 
vec_out\[30\] O *L 3.000e-01 *S 3.126e-03 3.543e-03 
vec_out\[29\] O *L 3.000e-01 *S 3.126e-03 3.543e-03 
vec_out\[28\] O *L 3.000e-01 *S 3.126e-03 3.543e-03 
vec_out\[27\] O *L 3.000e-01 *S 3.126e-03 3.543e-03 
vec_out\[26\] O *L 3.000e-01 *S 2.114e-03 2.433e-03 
vec_out\[25\] O *L 3.000e-01 *S 2.114e-03 2.433e-03 
vec_out\[24\] O *L 3.000e-01 *S 2.114e-03 2.433e-03 
vec_out\[23\] O *L 3.000e-01 *S 2.114e-03 2.433e-03 
vec_out\[22\] O *L 3.000e-01 *S 2.114e-03 2.433e-03 
vec_out\[21\] O *L 3.000e-01 *S 2.114e-03 2.433e-03 
vec_out\[20\] O *L 3.000e-01 *S 2.114e-03 2.433e-03 
vec_out\[19\] O *L 3.000e-01 *S 3.126e-03 3.543e-03 
vec_out\[18\] O *L 3.000e-01 *S 2.114e-03 2.433e-03 
vec_out\[17\] O *L 3.000e-01 *S 2.114e-03 2.433e-03 
vec_out\[16\] O *L 3.000e-01 *S 3.126e-03 3.543e-03 
vec_out\[15\] O *L 3.000e-01 *S 2.114e-03 2.433e-03 
vec_out\[14\] O *L 3.000e-01 *S 2.114e-03 2.433e-03 
vec_out\[13\] O *L 3.000e-01 *S 2.114e-03 2.433e-03 
vec_out\[12\] O *L 3.000e-01 *S 2.114e-03 2.433e-03 
vec_out\[11\] O *L 3.000e-01 *S 3.126e-03 3.543e-03 
vec_out\[10\] O *L 3.000e-01 *S 3.126e-03 3.543e-03 
vec_out\[9\] O *L 3.000e-01 *S 3.126e-03 3.543e-03 
vec_out\[8\] O *L 3.000e-01 *S 3.126e-03 3.543e-03 
vec_out\[7\] O *L 3.000e-01 *S 3.126e-03 3.543e-03 
vec_out\[6\] O *L 3.000e-01 *S 3.126e-03 3.543e-03 
vec_out\[5\] O *L 3.000e-01 *S 3.126e-03 3.543e-03 
vec_out\[4\] O *L 3.000e-01 *S 3.126e-03 3.543e-03 
vec_out\[3\] O *L 3.000e-01 *S 3.126e-03 3.543e-03 
vec_out\[2\] O *L 3.000e-01 *S 3.126e-03 3.543e-03 
vec_out\[1\] O *L 3.000e-01 *S 2.114e-03 2.433e-03 
vec_out\[0\] O *L 3.000e-01 *S 3.126e-03 3.543e-03 

*R_NET clk 3.855e+01
*DRIVER clk
*CELL NBUFFX4_RVT
*C2_R1_C1 1.927e+01 5.226e-01 1.927e+01 
*LOADS
*RC sigmoid_reg_reg_0__7_:CLK 1.419e-01
*RC sigmoid_reg_reg_2__7_:CLK 1.419e-01
*RC U6257:A 1.153e-01
*RC sigmoid_reg_reg_0__6_:CLK 1.422e-01
*RC sigmoid_reg_reg_2__1_:CLK 1.422e-01
*RC sigmoid_reg_reg_2__3_:CLK 1.422e-01
*RC sigmoid_reg_reg_2__6_:CLK 1.422e-01
*RC sigmoid_reg_reg_3__3_:CLK 1.422e-01
*RC sigmoid_reg_reg_1__3_:CLK 1.422e-01
*RC sigmoid_reg_reg_3__6_:CLK 1.422e-01
*RC sigmoid_reg_reg_0__4_:CLK 1.422e-01
*RC sigmoid_reg_reg_2__4_:CLK 1.422e-01
*END

*R_NET rst 5.223e+00
*DRIVER rst
*CELL NBUFFX4_RVT
*C2_R1_C1 2.611e+00 4.437e-02 2.611e+00 
*LOADS
*RC U7649:A 6.082e-02
*RC U8995:A3 5.504e-02
*END

*R_NET vec_in\[62\] 5.277e+00
*DRIVER vec_in\[62\]
*CELL NBUFFX4_RVT
*C2_R1_C1 2.639e+00 4.437e-02 2.639e+00 
*LOADS
*RC U8041:A1 5.389e-02
*RC U8064:A1 6.317e-02
*END

*R_NET vec_in\[61\] 2.269e+01
*DRIVER vec_in\[61\]
*CELL NBUFFX4_RVT
*C2_R1_C1 1.135e+01 2.704e-01 1.135e+01 
*LOADS
*RC U7577:A 9.284e-02
*RC U8266:A3 9.078e-02
*RC U8041:A2 6.871e-02
*RC U8047:A 1.254e-01
*RC U8064:A2 1.102e-01
*RC U9529:A1 8.228e-02
*RC U9649:A1 1.024e-01
*RC U9670:A1 9.443e-02
*END

*R_NET vec_in\[60\] 1.404e+01
*DRIVER vec_in\[60\]
*CELL NBUFFX4_RVT
*C2_R1_C1 7.021e+00 1.779e-01 7.021e+00 
*LOADS
*RC U7571:A1 7.333e-02
*RC U8043:A2 5.430e-02
*RC U8065:A1 7.285e-02
*RC U9527:A1 7.214e-02
*RC U9528:A1 7.126e-02
*RC U9531:A2 7.250e-02
*END

*R_NET vec_in\[59\] 2.791e+01
*DRIVER vec_in\[59\]
*CELL NBUFFX4_RVT
*C2_R1_C1 1.396e+01 4.501e-01 1.396e+01 
*LOADS
*RC U6250:A3 7.568e-02
*RC U7571:A2 1.088e-01
*RC U8043:A3 7.568e-02
*RC U8065:A2 9.985e-02
*RC U9518:A1 9.975e-02
*RC U9519:A 1.519e-01
*RC U9522:A1 1.145e-01
*RC U9527:A2 8.332e-02
*RC U9528:A2 1.031e-01
*RC U9531:A1 1.145e-01
*RC U9691:A1 1.153e-01
*END

*R_NET vec_in\[58\] 1.314e+01
*DRIVER vec_in\[58\]
*CELL NBUFFX4_RVT
*C2_R1_C1 6.570e+00 1.387e-01 6.570e+00 
*LOADS
*RC U8043:A1 6.049e-02
*RC U8062:A 1.028e-01
*RC U8307:A1 6.746e-02
*RC U9516:A2 5.632e-02
*RC U9521:A1 7.743e-02
*END

*R_NET vec_in\[57\] 2.767e+01
*DRIVER vec_in\[57\]
*CELL NBUFFX4_RVT
*C2_R1_C1 1.384e+01 3.842e-01 1.384e+01 
*LOADS
*RC U8044:A1 9.362e-02
*RC U8061:A 1.426e-01
*RC U8310:A1 9.248e-02
*RC U9516:A1 9.362e-02
*RC U9521:A2 9.409e-02
*RC U9560:A1 1.074e-01
*RC U9564:A1 1.074e-01
*RC U9629:A1 1.082e-01
*RC U9753:A1 1.165e-01
*RC U9764:A1 1.074e-01
*END

*R_NET vec_in\[56\] 2.102e+01
*DRIVER vec_in\[56\]
*CELL NBUFFX4_RVT
*C2_R1_C1 1.051e+01 2.704e-01 1.051e+01 
*LOADS
*RC U6298:A1 9.871e-02
*RC U8045:A2 8.090e-02
*RC U8066:A 1.254e-01
*RC U8118:A2 6.195e-02
*RC U8191:A3 8.305e-02
*RC U8202:A1 9.443e-02
*RC U8301:A1 8.228e-02
*RC U8320:A1 8.379e-02
*END

*R_NET vec_in\[55\] 6.182e+01
*DRIVER vec_in\[55\]
*CELL NBUFFX4_RVT
*C2_R1_C1 3.091e+01 1.941e+00 3.091e+01 
*LOADS
*RC U8006:A2 1.657e-01
*RC U6298:A2 1.953e-01
*RC U8048:A 3.017e-01
*RC U8069:A1 1.986e-01
*RC U8088:A1 1.986e-01
*RC U8091:A1 2.467e-01
*RC U8110:A1 2.324e-01
*RC U8118:A1 1.783e-01
*RC U8122:A1 2.277e-01
*RC U8158:A2 2.131e-01
*RC U8162:A3 1.934e-01
*RC U8162:A1 2.026e-01
*RC U8173:A1 2.277e-01
*RC U8189:A1 2.277e-01
*RC U8242:A3 1.869e-01
*RC U8256:A1 1.986e-01
*RC U8311:A3 2.189e-01
*RC U8314:A1 1.756e-01
*RC U8330:A1 1.719e-01
*RC U9543:A1 1.986e-01
*RC U9588:A1 1.986e-01
*RC U9589:A2 1.989e-01
*RC U9776:A1 2.467e-01
*RC U9798:A1 1.961e-01
*END

*R_NET vec_in\[54\] 5.687e+01
*DRIVER vec_in\[54\]
*CELL NBUFFX4_RVT
*C2_R1_C1 2.843e+01 1.663e+00 2.843e+01 
*LOADS
*RC U6236:A1 1.831e-01
*RC U6318:A1 2.141e-01
*RC U6500:A1 1.854e-01
*RC U6501:A 2.818e-01
*RC U8082:A1 1.664e-01
*RC U8088:A2 1.551e-01
*RC U8106:A3 1.578e-01
*RC U8109:A1 2.304e-01
*RC U8129:A2 1.963e-01
*RC U8145:A2 1.864e-01
*RC U8166:A1 1.854e-01
*RC U8173:A2 1.864e-01
*RC U8182:A1 2.304e-01
*RC U8184:A2 1.963e-01
*RC U8189:A2 1.864e-01
*RC U8221:A1 2.304e-01
*RC U8272:A3 2.231e-01
*RC U8291:A1 1.831e-01
*RC U8303:A2 1.864e-01
*RC U8315:A1 1.854e-01
*RC U8317:A4 1.602e-01
*RC U8334:A1 1.888e-01
*END

*R_NET vec_in\[53\] 2.996e+01
*DRIVER vec_in\[53\]
*CELL NBUFFX4_RVT
*C2_R1_C1 1.498e+01 6.020e-01 1.498e+01 
*LOADS
*RC U7807:A3 1.140e-01
*RC U8006:A1 1.045e-01
*RC U6236:A2 9.716e-02
*RC U8101:A5 1.102e-01
*RC U6502:A1 1.130e-01
*RC U8118:A3 8.575e-02
*RC U8166:A2 9.439e-02
*RC U8327:A1 1.062e-01
*RC U9656:A1 1.062e-01
*RC U6253:A 1.227e-01
*RC U9510:A2 1.132e-01
*RC U8189:A3 1.063e-01
*RC U8122:A2 1.136e-01
*END

*R_NET vec_in\[52\] 4.170e+01
*DRIVER vec_in\[52\]
*CELL NBUFFX4_RVT
*C2_R1_C1 2.085e+01 8.857e-01 2.085e+01 
*LOADS
*RC U6315:A2 1.330e-01
*RC U8215:A1 1.353e-01
*RC U8440:A2 1.360e-01
*RC U6318:A2 1.330e-01
*RC U6490:A 2.059e-01
*RC U8095:A1 1.552e-01
*RC U8102:A2 1.360e-01
*RC U8120:A3 1.151e-01
*RC U8134:A3 1.151e-01
*RC U8149:A3 1.444e-01
*RC U8164:A1 1.353e-01
*RC U8210:A1 1.682e-01
*RC U8211:A1 1.353e-01
*RC U8249:A1 1.552e-01
*RC U8316:A1 1.563e-01
*RC U8325:A3 1.492e-01
*END

*R_NET vec_in\[51\] 5.611e+01
*DRIVER vec_in\[51\]
*CELL NBUFFX4_RVT
*C2_R1_C1 2.805e+01 1.524e+00 2.805e+01 
*LOADS
*RC U6315:A1 2.132e-01
*RC U6489:A 2.705e-01
*RC U6510:A1 2.040e-01
*RC U6514:A1 1.779e-01
*RC U6533:A1 2.040e-01
*RC U8076:A1 1.779e-01
*RC U8079:A1 1.758e-01
*RC U8084:A1 1.779e-01
*RC U8086:A1 1.779e-01
*RC U8121:A1 1.758e-01
*RC U8134:A1 1.758e-01
*RC U8142:A1 2.040e-01
*RC U8147:A1 1.779e-01
*RC U8177:A1 2.211e-01
*RC U8245:A1 1.779e-01
*RC U8275:A1 2.211e-01
*RC U8331:A1 1.779e-01
*RC U8336:A1 1.673e-01
*RC U8343:A2 2.379e-01
*RC U9501:A1 1.779e-01
*RC U9502:A2 1.782e-01
*END

*R_NET vec_in\[50\] 3.583e+01
*DRIVER vec_in\[50\]
*CELL NBUFFX4_RVT
*C2_R1_C1 1.791e+01 6.887e-01 1.791e+01 
*LOADS
*RC U7807:A1 1.223e-01
*RC U6507:A1 1.201e-01
*RC U6508:A 1.828e-01
*RC U8049:A1 1.378e-01
*RC U8076:A2 1.003e-01
*RC U8081:A1 1.378e-01
*RC U8101:A2 1.043e-01
*RC U8104:A1 1.201e-01
*RC U8142:A2 1.207e-01
*RC U8211:A2 1.003e-01
*RC U8335:A1 1.387e-01
*RC U8347:A1 1.129e-01
*RC U8365:A4 1.037e-01
*RC U8370:A2 1.607e-01
*END

*R_NET vec_in\[49\] 2.288e+01
*DRIVER vec_in\[49\]
*CELL NBUFFX4_RVT
*C2_R1_C1 1.144e+01 3.244e-01 1.144e+01 
*LOADS
*RC U6239:A4 8.329e-02
*RC U6481:A 1.338e-01
*RC U6484:A1 8.779e-02
*RC U6486:A1 8.779e-02
*RC U6507:A2 7.331e-02
*RC U8081:A2 8.824e-02
*RC U8120:A1 8.673e-02
*RC U8348:A1 8.251e-02
*RC U8353:A1 1.015e-01
*END

*R_NET vec_in\[48\] 1.738e+01
*DRIVER vec_in\[48\]
*CELL NBUFFX4_RVT
*C2_R1_C1 8.691e+00 2.217e-01 8.691e+00 
*LOADS
*RC U6323:A 1.174e-01
*RC U6482:A1 7.707e-02
*RC U6484:A2 6.435e-02
*RC U8339:A1 7.707e-02
*RC U8359:A1 7.243e-02
*RC U8366:A3 7.515e-02
*RC U8366:A1 6.701e-02
*END

*R_NET vec_in\[46\] 1.215e+01
*DRIVER vec_in\[46\]
*CELL NBUFFX4_RVT
*C2_R1_C1 6.076e+00 1.387e-01 6.076e+00 
*LOADS
*RC U7515:A2 7.356e-02
*RC U8481:A2 6.752e-02
*RC U8491:A2 5.632e-02
*RC U8890:A3 6.997e-02
*RC U9123:A2 6.974e-02
*END

*R_NET vec_in\[45\] 2.406e+01
*DRIVER vec_in\[45\]
*CELL NBUFFX4_RVT
*C2_R1_C1 1.203e+01 3.244e-01 1.203e+01 
*LOADS
*RC U7515:A1 8.925e-02
*RC U8481:A1 8.866e-02
*RC U8491:A1 8.779e-02
*RC U9123:A1 8.673e-02
*RC U9138:A1 1.007e-01
*RC U9139:A 1.338e-01
*RC U9142:A1 1.007e-01
*RC U9260:A1 7.874e-02
*RC U9288:A1 1.007e-01
*END

*R_NET vec_in\[44\] 8.017e+00
*DRIVER vec_in\[44\]
*CELL NBUFFX4_RVT
*C2_R1_C1 4.009e+00 7.233e-02 4.009e+00 
*LOADS
*RC U8476:A 8.932e-02
*RC U8489:A2 4.890e-02
*RC U8890:A1 5.505e-02
*END

*R_NET vec_in\[43\] 1.650e+01
*DRIVER vec_in\[43\]
*CELL NBUFFX4_RVT
*C2_R1_C1 8.252e+00 1.779e-01 8.252e+00 
*LOADS
*RC U6248:A1 7.280e-02
*RC U8475:A 1.099e-01
*RC U8489:A1 7.214e-02
*RC U8741:A5 7.902e-02
*RC U9183:A1 7.214e-02
*RC U9311:A1 8.337e-02
*END

*R_NET vec_in\[42\] 1.354e+01
*DRIVER vec_in\[42\]
*CELL NBUFFX4_RVT
*C2_R1_C1 6.769e+00 1.387e-01 6.769e+00 
*LOADS
*RC U8479:A 1.028e-01
*RC U8493:A2 7.144e-02
*RC U8741:A2 6.758e-02
*RC U9181:A2 5.632e-02
*RC U9185:A1 7.743e-02
*END

*R_NET vec_in\[41\] 2.951e+01
*DRIVER vec_in\[41\]
*CELL NBUFFX4_RVT
*C2_R1_C1 1.475e+01 4.501e-01 1.475e+01 
*LOADS
*RC U8478:A 1.519e-01
*RC U8493:A1 1.241e-01
*RC U8868:A1 9.376e-02
*RC U9157:A1 9.975e-02
*RC U9160:A1 9.975e-02
*RC U9181:A1 9.975e-02
*RC U9185:A2 1.003e-01
*RC U9188:A1 9.975e-02
*RC U9189:A2 9.993e-02
*RC U9366:A1 1.241e-01
*RC U9378:A1 1.145e-01
*END

*R_NET vec_in\[40\] 2.219e+01
*DRIVER vec_in\[40\]
*CELL NBUFFX4_RVT
*C2_R1_C1 1.109e+01 3.244e-01 1.109e+01 
*LOADS
*RC U8510:A1 8.251e-02
*RC U8495:A1 8.779e-02
*RC U8482:A 1.338e-01
*RC U8502:A1 8.779e-02
*RC U8646:A1 8.668e-02
*RC U8741:A3 8.390e-02
*RC U8747:A1 7.591e-02
*RC U9153:A2 7.331e-02
*RC U9159:A2 8.824e-02
*END

*R_NET vec_in\[39\] 4.457e+01
*DRIVER vec_in\[39\]
*CELL NBUFFX4_RVT
*C2_R1_C1 2.229e+01 7.831e-01 2.229e+01 
*LOADS
*RC U6268:A 1.941e-01
*RC U6270:A 1.941e-01
*RC U7608:A 1.438e-01
*RC U8497:A1 1.463e-01
*RC U8644:A4 1.413e-01
*RC U8679:A1 1.473e-01
*RC U8688:A1 1.463e-01
*RC U8703:A1 1.586e-01
*RC U8732:A1 1.463e-01
*RC U8756:A1 1.586e-01
*RC U8759:A1 1.586e-01
*RC U8843:A1 1.463e-01
*RC U8870:A3 1.407e-01
*RC U9159:A1 1.463e-01
*RC U9394:A1 1.586e-01
*END

*R_NET vec_in\[38\] 5.231e+01
*DRIVER vec_in\[38\]
*CELL NBUFFX4_RVT
*C2_R1_C1 2.616e+01 1.524e+00 2.616e+01 
*LOADS
*RC U7607:A1 1.796e-01
*RC U6575:A1 1.779e-01
*RC U6577:A 2.705e-01
*RC U8497:A2 1.788e-01
*RC U8508:A2 1.531e-01
*RC U8547:A5 1.948e-01
*RC U8547:A3 1.701e-01
*RC U8547:A1 1.775e-01
*RC U8556:A2 1.488e-01
*RC U8573:A2 1.343e-01
*RC U8576:A1 1.816e-01
*RC U8585:A2 1.788e-01
*RC U8631:A3 1.675e-01
*RC U8659:A1 2.211e-01
*RC U8673:A2 1.488e-01
*RC U8682:A1 2.211e-01
*RC U8722:A2 1.531e-01
*RC U8768:A4 1.866e-01
*RC U8788:A1 1.540e-01
*RC U8848:A1 2.211e-01
*RC U8884:A1 1.779e-01
*END

*R_NET vec_in\[37\] 4.497e+01
*DRIVER vec_in\[37\]
*CELL NBUFFX4_RVT
*C2_R1_C1 2.248e+01 7.831e-01 2.248e+01 
*LOADS
*RC U7607:A2 1.126e-01
*RC U6558:A1 1.463e-01
*RC U6568:A1 1.463e-01
*RC U6572:A1 1.586e-01
*RC U8524:A1 1.463e-01
*RC U8547:A4 1.339e-01
*RC U8555:A1 1.586e-01
*RC U8609:A1 1.586e-01
*RC U8617:A1 1.586e-01
*RC U8662:A1 1.586e-01
*RC U8715:A3 1.407e-01
*RC U8771:A0 2.290e-01
*RC U8841:A1 1.586e-01
*RC U8869:A1 1.473e-01
*RC U6231:A 1.941e-01
*END

*R_NET vec_in\[36\] 3.137e+01
*DRIVER vec_in\[36\]
*CELL NBUFFX4_RVT
*C2_R1_C1 1.568e+01 4.501e-01 1.568e+01 
*LOADS
*RC U6246:A1 9.849e-02
*RC U8514:A1 9.975e-02
*RC U8547:A2 9.993e-02
*RC U8554:A1 9.975e-02
*RC U8631:A1 1.145e-01
*RC U8694:A1 1.241e-01
*RC U8742:A1 9.975e-02
*RC U8769:A0 1.793e-01
*RC U8784:A4 1.106e-01
*RC U8848:A2 1.056e-01
*RC U6553:A 1.519e-01
*END

*R_NET vec_in\[35\] 5.200e+01
*DRIVER vec_in\[35\]
*CELL NBUFFX4_RVT
*C2_R1_C1 2.600e+01 1.385e+00 2.600e+01 
*LOADS
*RC U6246:A2 1.460e-01
*RC U6247:A1 1.712e-01
*RC U6287:A1 2.034e-01
*RC U6555:A 2.580e-01
*RC U6563:A1 1.946e-01
*RC U6565:A2 2.269e-01
*RC U6595:A1 1.697e-01
*RC U8516:A1 1.697e-01
*RC U8548:A1 2.109e-01
*RC U8564:A1 1.946e-01
*RC U8567:A3 1.444e-01
*RC U8580:A1 1.697e-01
*RC U8633:A1 2.109e-01
*RC U8637:A3 1.444e-01
*RC U8656:A1 2.109e-01
*RC U8669:A4 1.466e-01
*RC U8773:A1 1.697e-01
*RC U8780:A3 1.655e-01
*RC U8780:A1 1.477e-01
*RC U8804:A1 1.469e-01
*END

*R_NET vec_in\[34\] 4.104e+01
*DRIVER vec_in\[34\]
*CELL NBUFFX4_RVT
*C2_R1_C1 2.052e+01 8.857e-01 2.052e+01 
*LOADS
*RC U6560:A1 1.353e-01
*RC U6561:A 2.059e-01
*RC U8519:A1 1.353e-01
*RC U8520:A1 1.552e-01
*RC U8548:A2 1.432e-01
*RC U8560:A1 1.214e-01
*RC U8564:A2 1.360e-01
*RC U8567:A1 1.337e-01
*RC U8580:A2 1.131e-01
*RC U8633:A2 1.432e-01
*RC U8637:A2 1.398e-01
*RC U8656:A2 1.432e-01
*RC U8718:A1 1.552e-01
*RC U8781:A1 1.272e-01
*RC U8789:A1 1.353e-01
*RC U8799:A3 1.492e-01
*END

*R_NET vec_in\[33\] 3.580e+01
*DRIVER vec_in\[33\]
*CELL NBUFFX4_RVT
*C2_R1_C1 1.790e+01 6.887e-01 1.790e+01 
*LOADS
*RC U6545:A 1.828e-01
*RC U6547:A1 1.201e-01
*RC U6549:A1 1.201e-01
*RC U6560:A2 1.003e-01
*RC U6593:A1 1.378e-01
*RC U8520:A2 1.207e-01
*RC U8548:A3 1.282e-01
*RC U8564:A3 1.130e-01
*RC U8633:A3 1.282e-01
*RC U8656:A3 1.282e-01
*RC U8680:A2 1.241e-01
*RC U8783:A1 1.387e-01
*RC U8794:A1 1.129e-01
*RC U8799:A1 1.061e-01
*END

*R_NET vec_in\[32\] 2.001e+01
*DRIVER vec_in\[32\]
*CELL NBUFFX4_RVT
*C2_R1_C1 1.001e+01 2.704e-01 1.001e+01 
*LOADS
*RC U6546:A1 8.228e-02
*RC U6547:A2 6.871e-02
*RC U6548:A 1.254e-01
*RC U8520:A3 7.741e-02
*RC U8656:A4 8.089e-02
*RC U8793:A1 8.228e-02
*RC U8802:A2 8.210e-02
*RC U8805:A1 7.733e-02
*END

*R_NET vec_in\[30\] 5.277e+00
*DRIVER vec_in\[30\]
*CELL NBUFFX4_RVT
*C2_R1_C1 2.639e+00 4.437e-02 2.639e+00 
*LOADS
*RC U6631:A1 5.389e-02
*RC U6632:A1 6.317e-02
*END

*R_NET vec_in\[29\] 2.258e+01
*DRIVER vec_in\[29\]
*CELL NBUFFX4_RVT
*C2_R1_C1 1.129e+01 2.704e-01 1.129e+01 
*LOADS
*RC U6631:A2 6.871e-02
*RC U6632:A2 1.102e-01
*RC U6657:A 1.254e-01
*RC U6660:A1 8.228e-02
*RC U6666:A1 9.443e-02
*RC U6807:A1 1.024e-01
*RC U6830:A1 9.443e-02
*RC U8468:A3 8.534e-02
*END

*R_NET vec_in\[28\] 1.082e+01
*DRIVER vec_in\[28\]
*CELL NBUFFX4_RVT
*C2_R1_C1 5.411e+00 1.036e-01 5.411e+00 
*LOADS
*RC U6655:A1 6.299e-02
*RC U6656:A1 6.222e-02
*RC U6665:A 9.602e-02
*RC U8468:A1 5.919e-02
*END

*R_NET vec_in\[27\] 1.819e+01
*DRIVER vec_in\[27\]
*CELL NBUFFX4_RVT
*C2_R1_C1 9.095e+00 2.217e-01 9.095e+00 
*LOADS
*RC U6617:A1 7.707e-02
*RC U6618:A 1.174e-01
*RC U6623:A1 7.707e-02
*RC U6655:A2 6.435e-02
*RC U6656:A2 7.967e-02
*RC U6736:A1 8.907e-02
*RC U7976:A3 7.144e-02
*END

*R_NET vec_in\[26\] 9.903e+00
*DRIVER vec_in\[26\]
*CELL NBUFFX4_RVT
*C2_R1_C1 4.952e+00 1.036e-01 4.952e+00 
*LOADS
*RC U6614:A1 6.299e-02
*RC U6615:A1 7.383e-02
*RC U6620:A2 6.331e-02
*RC U7709:A1 5.647e-02
*END

*R_NET vec_in\[25\] 3.435e+01
*DRIVER vec_in\[25\]
*CELL NBUFFX4_RVT
*C2_R1_C1 1.718e+01 6.020e-01 1.718e+01 
*LOADS
*RC U6612:A1 1.130e-01
*RC U6613:A4 1.186e-01
*RC U6614:A2 9.439e-02
*RC U6615:A2 1.512e-01
*RC U6620:A1 1.296e-01
*RC U6684:A1 1.296e-01
*RC U6685:A 1.720e-01
*RC U6688:A2 9.439e-02
*RC U6914:A1 1.405e-01
*RC U6933:A1 1.296e-01
*RC U7709:A2 8.513e-02
*RC U7895:A3 1.246e-01
*RC U7976:A1 1.080e-01
*END

*R_NET vec_in\[24\] 2.601e+01
*DRIVER vec_in\[24\]
*CELL NBUFFX4_RVT
*C2_R1_C1 1.300e+01 3.842e-01 1.300e+01 
*LOADS
*RC U7799:A1 9.248e-02
*RC U6312:A2 9.204e-02
*RC U6610:A 1.426e-01
*RC U7710:A1 9.362e-02
*RC U7727:A1 9.362e-02
*RC U7739:A1 1.082e-01
*RC U7840:A1 9.362e-02
*RC U7880:A1 9.362e-02
*RC U7905:A1 9.533e-02
*RC U7988:A2 9.409e-02
*END

*R_NET vec_in\[23\] 4.910e+01
*DRIVER vec_in\[23\]
*CELL NBUFFX4_RVT
*C2_R1_C1 2.455e+01 1.117e+00 2.455e+01 
*LOADS
*RC U6312:A1 1.820e-01
*RC U6609:A 2.309e-01
*RC U6628:A1 1.518e-01
*RC U6629:A2 1.521e-01
*RC U6763:A1 1.518e-01
*RC U6765:A1 1.518e-01
*RC U6946:A1 1.362e-01
*RC U6966:A1 1.741e-01
*RC U7679:A1 1.518e-01
*RC U7682:A1 1.887e-01
*RC U7698:A1 1.741e-01
*RC U7706:A1 1.518e-01
*RC U7715:A2 1.607e-01
*RC U7758:A1 1.499e-01
*RC U7789:A1 1.518e-01
*RC U7832:A0 2.724e-01
*RC U7912:A1 1.546e-01
*RC U7976:A5 1.595e-01
*END

*R_NET vec_in\[22\] 5.036e+01
*DRIVER vec_in\[22\]
*CELL NBUFFX4_RVT
*C2_R1_C1 2.518e+01 1.385e+00 2.518e+01 
*LOADS
*RC U8283:A 1.691e-01
*RC U7674:A1 2.109e-01
*RC U6279:A1 1.731e-01
*RC U6280:A2 1.499e-01
*RC U6627:A2 1.419e-01
*RC U6762:A4 1.610e-01
*RC U7673:A1 1.946e-01
*RC U7679:A2 1.419e-01
*RC U7685:A2 1.705e-01
*RC U7698:A2 1.705e-01
*RC U7749:A1 1.946e-01
*RC U7763:A2 1.796e-01
*RC U7764:A2 1.705e-01
*RC U7820:A1 2.109e-01
*RC U7888:A3 2.042e-01
*RC U7909:A1 1.595e-01
*RC U7922:A1 1.469e-01
*RC U7969:A1 1.728e-01
*RC U7988:A1 1.946e-01
*RC U8013:A2 1.705e-01
*END

*R_NET vec_in\[21\] 4.463e+01
*DRIVER vec_in\[21\]
*CELL NBUFFX4_RVT
*C2_R1_C1 2.232e+01 6.887e-01 2.232e+01 
*LOADS
*RC U8284:A 6.531e-01
*RC U6627:A1 1.201e-01
*RC U7673:A2 1.207e-01
*RC U7693:A2 1.180e-01
*RC U7724:A1 1.201e-01
*RC U7739:A2 1.180e-01
*RC U7754:A2 1.207e-01
*RC U7758:A2 1.033e-01
*RC U7785:A2 1.207e-01
*RC U7812:A2 1.271e-01
*RC U7855:A1 1.201e-01
*RC U7899:A1 1.201e-01
*RC U7914:A1 1.129e-01
*RC U7972:A2 1.207e-01
*END

*R_NET vec_in\[20\] 5.699e+01
*DRIVER vec_in\[20\]
*CELL NBUFFX4_RVT
*C2_R1_C1 2.850e+01 1.524e+00 2.850e+01 
*LOADS
*RC U7802:A1 1.650e-01
*RC U7927:A2 2.379e-01
*RC U6249:A2 1.749e-01
*RC U6649:A 2.705e-01
*RC U7657:A2 2.379e-01
*RC U7692:A1 2.083e-01
*RC U7696:A1 1.779e-01
*RC U7724:A2 1.488e-01
*RC U7744:A1 1.779e-01
*RC U7751:A1 2.040e-01
*RC U7752:A2 1.883e-01
*RC U7762:A1 2.211e-01
*RC U7782:A2 1.883e-01
*RC U7785:A1 2.040e-01
*RC U7805:A1 1.779e-01
*RC U7836:A1 2.211e-01
*RC U7837:A1 1.779e-01
*RC U7850:A1 2.040e-01
*RC U7874:A1 1.779e-01
*RC U7906:A1 2.054e-01
*RC U7915:A1 1.673e-01
*END

*R_NET vec_in\[19\] 4.646e+01
*DRIVER vec_in\[19\]
*CELL NBUFFX4_RVT
*C2_R1_C1 2.323e+01 9.968e-01 2.323e+01 
*LOADS
*RC U6249:A1 1.656e-01
*RC U6648:A 2.181e-01
*RC U6682:A1 1.434e-01
*RC U6683:A2 1.436e-01
*RC U6856:A1 1.645e-01
*RC U6858:A2 1.918e-01
*RC U6859:A1 1.434e-01
*RC U7000:A1 1.645e-01
*RC U7656:A3 1.447e-01
*RC U7664:A1 1.782e-01
*RC U7691:A3 1.220e-01
*RC U7723:A2 1.441e-01
*RC U7733:A1 1.645e-01
*RC U7759:A1 1.434e-01
*RC U7913:A1 1.656e-01
*RC U7919:A1 1.348e-01
*RC U7942:A2 1.918e-01
*END

*R_NET vec_in\[18\] 4.148e+01
*DRIVER vec_in\[18\]
*CELL NBUFFX4_RVT
*C2_R1_C1 2.074e+01 8.857e-01 2.074e+01 
*LOADS
*RC U6677:A 2.059e-01
*RC U6681:A1 1.353e-01
*RC U7656:A1 1.378e-01
*RC U7664:A2 1.432e-01
*RC U7671:A2 1.131e-01
*RC U7683:A2 1.360e-01
*RC U7691:A2 1.398e-01
*RC U7694:A1 1.353e-01
*RC U7723:A1 1.552e-01
*RC U7733:A2 1.360e-01
*RC U7737:A1 1.552e-01
*RC U7836:A2 1.432e-01
*RC U7918:A1 1.353e-01
*RC U7931:A1 1.272e-01
*RC U7951:A2 1.810e-01
*RC U7956:A1 1.170e-01
*END

*R_NET vec_in\[17\] 2.929e+01
*DRIVER vec_in\[17\]
*CELL NBUFFX4_RVT
*C2_R1_C1 1.465e+01 4.501e-01 1.465e+01 
*LOADS
*RC U6294:A1 1.196e-01
*RC U6678:A 1.519e-01
*RC U6681:A2 8.332e-02
*RC U6694:A4 9.464e-02
*RC U6898:A1 1.153e-01
*RC U6998:A1 1.145e-01
*RC U7664:A3 1.065e-01
*RC U7683:A3 9.385e-02
*RC U7733:A3 9.385e-02
*RC U7930:A1 1.153e-01
*RC U7938:A3 1.100e-01
*END

*R_NET vec_in\[16\] 1.780e+01
*DRIVER vec_in\[16\]
*CELL NBUFFX4_RVT
*C2_R1_C1 8.898e+00 2.217e-01 8.898e+00 
*LOADS
*RC U6294:A2 7.577e-02
*RC U6693:A1 7.707e-02
*RC U6897:A 1.174e-01
*RC U7664:A4 7.577e-02
*RC U7936:A1 7.707e-02
*RC U7955:A1 7.243e-02
*RC U7960:A1 6.807e-02
*END

*R_NET vec_in\[14\] 9.626e+00
*DRIVER vec_in\[14\]
*CELL NBUFFX4_RVT
*C2_R1_C1 4.813e+00 1.036e-01 4.813e+00 
*LOADS
*RC U7565:A2 6.869e-02
*RC U7037:A2 5.258e-02
*RC U7038:A2 6.511e-02
*RC U7301:A2 6.305e-02
*END

*R_NET vec_in\[13\] 2.367e+01
*DRIVER vec_in\[13\]
*CELL NBUFFX4_RVT
*C2_R1_C1 1.183e+01 3.244e-01 1.183e+01 
*LOADS
*RC U6219:A1 8.668e-02
*RC U7565:A1 8.925e-02
*RC U7037:A1 8.779e-02
*RC U7038:A1 8.673e-02
*RC U7066:A1 1.007e-01
*RC U7067:A 1.338e-01
*RC U7089:A1 7.874e-02
*RC U7145:A1 1.007e-01
*RC U7301:A1 8.866e-02
*END

*R_NET vec_in\[12\] 5.277e+00
*DRIVER vec_in\[12\]
*CELL NBUFFX4_RVT
*C2_R1_C1 2.639e+00 4.437e-02 2.639e+00 
*LOADS
*RC U7064:A1 5.389e-02
*RC U7065:A1 6.317e-02
*END

*R_NET vec_in\[11\] 1.884e+01
*DRIVER vec_in\[11\]
*CELL NBUFFX4_RVT
*C2_R1_C1 9.419e+00 2.217e-01 9.419e+00 
*LOADS
*RC U6409:A3 6.550e-02
*RC U6340:A 1.174e-01
*RC U7064:A2 6.435e-02
*RC U7065:A2 1.032e-01
*RC U7077:A1 7.707e-02
*RC U7155:A1 8.907e-02
*RC U8974:A3 7.993e-02
*END

*R_NET vec_in\[10\] 9.905e+00
*DRIVER vec_in\[10\]
*CELL NBUFFX4_RVT
*C2_R1_C1 4.953e+00 1.036e-01 4.953e+00 
*LOADS
*RC U7074:A2 5.258e-02
*RC U7075:A2 8.438e-02
*RC U7078:A1 7.230e-02
*RC U7648:A2 4.740e-02
*END

*R_NET vec_in\[9\] 3.254e+01
*DRIVER vec_in\[9\]
*CELL NBUFFX4_RVT
*C2_R1_C1 1.627e+01 5.226e-01 1.627e+01 
*LOADS
*RC U6285:A1 1.072e-01
*RC U7053:A1 1.219e-01
*RC U7054:A 1.617e-01
*RC U7074:A1 1.062e-01
*RC U7075:A1 1.244e-01
*RC U7078:A2 1.067e-01
*RC U7204:A1 1.321e-01
*RC U7214:A1 1.219e-01
*RC U7258:A1 9.983e-02
*RC U7648:A1 9.526e-02
*RC U8905:A3 1.172e-01
*RC U9041:A1 1.227e-01
*END

*R_NET vec_in\[8\] 4.394e+01
*DRIVER vec_in\[8\]
*CELL NBUFFX4_RVT
*C2_R1_C1 2.197e+01 9.968e-01 2.197e+01 
*LOADS
*RC U7056:A1 1.645e-01
*RC U7050:A2 1.198e-01
*RC U7051:A 2.181e-01
*RC U7353:A1 1.287e-01
*RC U7368:A1 1.645e-01
*RC U7408:A3 1.531e-01
*RC U7411:A1 1.645e-01
*RC U7443:A5 1.594e-01
*RC U7450:A1 1.267e-01
*RC U7457:A1 1.434e-01
*RC U7463:A2 1.518e-01
*RC U7467:A1 1.348e-01
*RC U7471:A3 1.531e-01
*RC U7510:A1 1.782e-01
*RC U7603:A3 1.349e-01
*RC U8897:A1 1.460e-01
*RC U8974:A2 1.347e-01
*END

*R_NET vec_in\[7\] 3.745e+01
*DRIVER vec_in\[7\]
*CELL NBUFFX4_RVT
*C2_R1_C1 1.873e+01 7.831e-01 1.873e+01 
*LOADS
*RC U7471:A2 1.350e-01
*RC U7110:A2 1.277e-01
*RC U6225:A2 1.254e-01
*RC U7056:A3 1.200e-01
*RC U7642:A1 1.103e-01
*RC U7408:A2 1.350e-01
*RC U7334:A1 1.275e-01
*RC U7109:A1 1.275e-01
*RC U7061:A1 1.275e-01
*RC U7050:A1 1.275e-01
*RC U7465:A1 1.144e-01
*RC U7312:A1 1.259e-01
*RC U7484:A1 1.275e-01
*RC U7483:A1 1.298e-01
*RC U6223:A 1.941e-01
*END

*R_NET vec_in\[6\] 5.771e+01
*DRIVER vec_in\[6\]
*CELL NBUFFX4_RVT
*C2_R1_C1 2.886e+01 1.802e+00 2.886e+01 
*LOADS
*RC U6245:A1 1.899e-01
*RC U6439:A1 1.923e-01
*RC U6440:A 2.922e-01
*RC U7108:A1 1.923e-01
*RC U7312:A2 1.655e-01
*RC U7323:A3 2.052e-01
*RC U7328:A1 2.389e-01
*RC U7334:A2 1.608e-01
*RC U7373:A3 1.576e-01
*RC U7391:A1 1.923e-01
*RC U7408:A4 1.891e-01
*RC U7433:A1 1.700e-01
*RC U7436:A1 2.205e-01
*RC U7440:A1 2.205e-01
*RC U7449:A1 2.205e-01
*RC U7465:A2 1.452e-01
*RC U7558:A1 1.958e-01
*RC U7605:A2 1.807e-01
*RC U7621:A1 2.251e-01
*RC U8900:A3 1.875e-01
*RC U8900:A1 1.674e-01
*RC U8924:A1 2.205e-01
*RC U8925:A1 1.923e-01
*END

*R_NET vec_in\[5\] 4.406e+01
*DRIVER vec_in\[5\]
*CELL NBUFFX4_RVT
*C2_R1_C1 2.203e+01 1.117e+00 2.203e+01 
*LOADS
*RC U6245:A2 1.306e-01
*RC U6255:A 2.309e-01
*RC U6436:A1 1.518e-01
*RC U6441:A1 1.518e-01
*RC U7033:A1 1.518e-01
*RC U7034:A2 1.521e-01
*RC U7108:A2 1.269e-01
*RC U7312:A3 1.243e-01
*RC U7325:A1 1.546e-01
*RC U7333:A1 1.518e-01
*RC U7405:A1 1.518e-01
*RC U7443:A2 1.515e-01
*RC U7465:A3 1.153e-01
*RC U7479:A2 1.607e-01
*RC U7508:A1 1.546e-01
*RC U7512:A2 1.607e-01
*RC U7532:A1 1.518e-01
*RC U7542:A2 1.607e-01
*END

*R_NET vec_in\[4\] 5.723e+01
*DRIVER vec_in\[4\]
*CELL NBUFFX4_RVT